MODEL 1
REMARK VINA RESULT:   -11.627      0.000      0.000
REMARK INTER + INTRA:         -22.393
REMARK INTER:                 -19.103
REMARK INTRA:                  -3.289
REMARK UNBOUND:                -3.289
REMARK SMILES Cc1cc(OCC(=O)NCCNC(=O)c2cccc(COc3ccccc3C(N)=O)c2)c2c3c(c(=O)oc2c1)CCC3
REMARK SMILES IDX 14 1 13 2 12 3 15 5 16 6 31 7 17 8 19 9 18 10 20 11 21 12
REMARK SMILES IDX 22 13 27 14 23 15 26 16 24 17 25 18 28 19 29 20 30 21 11 24
REMARK SMILES IDX 10 25 9 26 7 27 8 29 6 30 5 31 4 32 3 33 32 34 2 35 38 36
REMARK SMILES IDX 33 37 1 38 39 39 37 40 34 41 42 42 35 43 40 44 41 45 36 46
REMARK H PARENT 12 4 29 22 29 23 9 28
REMARK Flexibility Score: inf
ROOT
ATOM      1  O   UNL     1      15.438  -2.481  12.282  1.00  0.00    -0.269 OA
ATOM      2  C   UNL     1      16.104  -2.511  13.343  1.00  0.00     0.251 C 
ATOM      3  N   UNL     1      17.107  -1.554  13.558  1.00  0.00    -0.350 N 
ATOM      4  H   UNL     1      17.661  -1.577  14.434  1.00  0.00     0.163 HD
ENDROOT
BRANCH   2   5
ATOM      5  C   UNL     1      15.808  -3.546  14.316  1.00  0.00     0.040 A 
ATOM      6  C   UNL     1      14.965  -4.614  13.970  1.00  0.00     0.014 A 
ATOM      7  C   UNL     1      16.316  -3.535  15.585  1.00  0.00     0.021 A 
ATOM      8  C   UNL     1      14.660  -5.609  14.864  1.00  0.00     0.001 A 
ATOM      9  C   UNL     1      16.023  -4.530  16.507  1.00  0.00    -0.010 A 
ATOM     10  C   UNL     1      15.190  -5.569  16.137  1.00  0.00     0.007 A 
BRANCH   9  11
ATOM     11  C   UNL     1      16.626  -4.424  17.850  1.00  0.00     0.265 C 
BRANCH  11  12
ATOM     12  O   UNL     1      18.001  -4.633  17.897  1.00  0.00    -0.488 OA
BRANCH  12  13
ATOM     13  C   UNL     1      18.996  -3.745  17.582  1.00  0.00     0.132 A 
ATOM     14  C   UNL     1      19.940  -4.189  16.651  1.00  0.00     0.081 A 
ATOM     15  C   UNL     1      19.112  -2.488  18.114  1.00  0.00     0.047 A 
ATOM     16  C   UNL     1      20.998  -3.379  16.251  1.00  0.00     0.018 A 
ATOM     17  C   UNL     1      20.162  -1.687  17.716  1.00  0.00     0.004 A 
ATOM     18  C   UNL     1      21.095  -2.119  16.798  1.00  0.00     0.001 A 
BRANCH  14  19
ATOM     19  C   UNL     1      19.850  -5.519  16.066  1.00  0.00     0.252 C 
ATOM     20  N   UNL     1      19.011  -5.786  14.965  1.00  0.00    -0.365 N 
ATOM     21  O   UNL     1      20.547  -6.434  16.575  1.00  0.00    -0.269 OA
ATOM     22  H   UNL     1      19.342  -6.392  14.183  1.00  0.00     0.159 HD
ATOM     23  H   UNL     1      18.048  -5.362  14.952  1.00  0.00     0.159 HD
ENDBRANCH  14  19
ENDBRANCH  12  13
ENDBRANCH  11  12
ENDBRANCH   9  11
ENDBRANCH   2   5
BRANCH   3  24
ATOM     24  C   UNL     1      17.415  -0.515  12.592  1.00  0.00     0.137 C 
BRANCH  24  25
ATOM     25  C   UNL     1      17.151   0.858  13.136  1.00  0.00     0.137 C 
BRANCH  25  26
ATOM     26  N   UNL     1      17.775   1.056  14.422  1.00  0.00    -0.351 N 
ATOM     27  C   UNL     1      17.142   0.739  15.646  1.00  0.00     0.258 C 
ATOM     28  H   UNL     1      18.754   1.448  14.492  1.00  0.00     0.163 HD
ATOM     29  O   UNL     1      15.952   0.241  15.557  1.00  0.00    -0.271 OA
BRANCH  27  30
ATOM     30  C   UNL     1      17.722   0.926  16.981  1.00  0.00     0.329 C 
BRANCH  30  31
ATOM     31  O   UNL     1      18.968   1.594  16.901  1.00  0.00    -0.483 OA
BRANCH  31  32
ATOM     32  C   UNL     1      19.632   1.913  18.100  1.00  0.00     0.131 A 
ATOM     33  C   UNL     1      18.906   2.232  19.244  1.00  0.00     0.050 A 
ATOM     34  C   UNL     1      20.990   1.906  18.141  1.00  0.00     0.063 A 
ATOM     35  C   UNL     1      19.506   2.545  20.437  1.00  0.00    -0.044 A 
ATOM     36  C   UNL     1      21.642   2.223  19.347  1.00  0.00     0.142 A 
ATOM     37  C   UNL     1      21.823   1.612  17.081  1.00  0.00    -0.023 A 
ATOM     38  C   UNL     1      18.701   2.886  21.663  1.00  0.00     0.044 C 
ATOM     39  C   UNL     1      20.887   2.532  20.464  1.00  0.00     0.051 A 
ATOM     40  O   UNL     1      22.940   2.232  19.448  1.00  0.00    -0.422 OA
ATOM     41  C   UNL     1      23.190   1.624  17.197  1.00  0.00     0.042 A 
ATOM     42  C   UNL     1      21.443   1.283  15.679  1.00  0.00     0.037 C 
ATOM     43  C   UNL     1      23.718   1.951  18.441  1.00  0.00     0.339 A 
ATOM     44  C   UNL     1      23.777   1.251  15.897  1.00  0.00     0.044 C 
ATOM     45  C   UNL     1      22.711   1.575  14.898  1.00  0.00     0.010 C 
ATOM     46  O   UNL     1      24.978   1.956  18.524  1.00  0.00    -0.246 OA
ENDBRANCH  31  32
ENDBRANCH  30  31
ENDBRANCH  27  30
ENDBRANCH  25  26
ENDBRANCH  24  25
ENDBRANCH   3  24
TORSDOF 11
ENDMDL
MODEL 2
REMARK VINA RESULT:   -11.610      2.226      7.626
REMARK INTER + INTRA:         -22.365
REMARK INTER:                 -18.429
REMARK INTRA:                  -3.937
REMARK UNBOUND:                -3.289
REMARK SMILES Cc1cc(OCC(=O)NCCNC(=O)c2cccc(COc3ccccc3C(N)=O)c2)c2c3c(c(=O)oc2c1)CCC3
REMARK SMILES IDX 14 1 13 2 12 3 15 5 16 6 31 7 17 8 19 9 18 10 20 11 21 12
REMARK SMILES IDX 22 13 27 14 23 15 26 16 24 17 25 18 28 19 29 20 30 21 11 24
REMARK SMILES IDX 10 25 9 26 7 27 8 29 6 30 5 31 4 32 3 33 32 34 2 35 38 36
REMARK SMILES IDX 33 37 1 38 39 39 37 40 34 41 42 42 35 43 40 44 41 45 36 46
REMARK H PARENT 12 4 29 22 29 23 9 28
REMARK Flexibility Score: inf
ROOT
ATOM      1  O   UNL     1      19.129  -0.117  12.715  1.00  0.00    -0.269 OA
ATOM      2  C   UNL     1      19.625   0.687  13.540  1.00  0.00     0.251 C 
ATOM      3  N   UNL     1      19.051   1.956  13.699  1.00  0.00    -0.350 N 
ATOM      4  H   UNL     1      19.460   2.625  14.379  1.00  0.00     0.163 HD
ENDROOT
BRANCH   2   5
ATOM      5  C   UNL     1      20.787   0.267  14.301  1.00  0.00     0.040 A 
ATOM      6  C   UNL     1      21.711  -0.627  13.737  1.00  0.00     0.014 A 
ATOM      7  C   UNL     1      21.035   0.704  15.572  1.00  0.00     0.021 A 
ATOM      8  C   UNL     1      22.818  -1.048  14.427  1.00  0.00     0.001 A 
ATOM      9  C   UNL     1      22.148   0.293  16.291  1.00  0.00    -0.010 A 
ATOM     10  C   UNL     1      23.041  -0.587  15.709  1.00  0.00     0.007 A 
BRANCH   9  11
ATOM     11  C   UNL     1      22.324   0.827  17.655  1.00  0.00     0.265 C 
BRANCH  11  12
ATOM     12  O   UNL     1      21.330   1.704  18.078  1.00  0.00    -0.488 OA
BRANCH  12  13
ATOM     13  C   UNL     1      21.148   2.224  19.333  1.00  0.00     0.132 A 
ATOM     14  C   UNL     1      19.837   2.203  19.820  1.00  0.00     0.081 A 
ATOM     15  C   UNL     1      22.148   2.746  20.110  1.00  0.00     0.047 A 
ATOM     16  C   UNL     1      19.526   2.702  21.080  1.00  0.00     0.018 A 
ATOM     17  C   UNL     1      21.837   3.242  21.359  1.00  0.00     0.004 A 
ATOM     18  C   UNL     1      20.547   3.223  21.844  1.00  0.00     0.001 A 
BRANCH  14  19
ATOM     19  C   UNL     1      18.749   1.656  19.023  1.00  0.00     0.252 C 
ATOM     20  N   UNL     1      18.853   0.401  18.392  1.00  0.00    -0.365 N 
ATOM     21  O   UNL     1      17.700   2.343  18.909  1.00  0.00    -0.269 OA
ATOM     22  H   UNL     1      18.048  -0.263  18.399  1.00  0.00     0.159 HD
ATOM     23  H   UNL     1      19.758   0.150  17.917  1.00  0.00     0.159 HD
ENDBRANCH  14  19
ENDBRANCH  12  13
ENDBRANCH  11  12
ENDBRANCH   9  11
ENDBRANCH   2   5
BRANCH   3  24
ATOM     24  C   UNL     1      17.890   2.390  12.942  1.00  0.00     0.137 C 
BRANCH  24  25
ATOM     25  C   UNL     1      16.614   2.200  13.708  1.00  0.00     0.137 C 
BRANCH  25  26
ATOM     26  N   UNL     1      16.316   0.804  13.919  1.00  0.00    -0.351 N 
ATOM     27  C   UNL     1      16.550   0.140  15.145  1.00  0.00     0.258 C 
ATOM     28  H   UNL     1      15.897   0.219  13.145  1.00  0.00     0.163 HD
ATOM     29  O   UNL     1      17.045   0.863  16.097  1.00  0.00    -0.271 OA
BRANCH  27  30
ATOM     30  C   UNL     1      16.277  -1.276  15.415  1.00  0.00     0.329 C 
BRANCH  30  31
ATOM     31  O   UNL     1      16.914  -2.105  14.460  1.00  0.00    -0.483 OA
BRANCH  31  32
ATOM     32  C   UNL     1      17.871  -3.032  14.912  1.00  0.00     0.131 A 
ATOM     33  C   UNL     1      18.900  -2.626  15.757  1.00  0.00     0.050 A 
ATOM     34  C   UNL     1      17.786  -4.331  14.524  1.00  0.00     0.063 A 
ATOM     35  C   UNL     1      19.854  -3.492  16.229  1.00  0.00    -0.044 A 
ATOM     36  C   UNL     1      18.747  -5.249  14.987  1.00  0.00     0.142 A 
ATOM     37  C   UNL     1      16.821  -4.858  13.691  1.00  0.00    -0.023 A 
ATOM     38  C   UNL     1      20.958  -3.032  17.142  1.00  0.00     0.044 C 
ATOM     39  C   UNL     1      19.754  -4.810  15.826  1.00  0.00     0.051 A 
ATOM     40  O   UNL     1      18.717  -6.506  14.651  1.00  0.00    -0.422 OA
ATOM     41  C   UNL     1      16.798  -6.185  13.342  1.00  0.00     0.042 A 
ATOM     42  C   UNL     1      15.705  -4.143  13.011  1.00  0.00     0.037 C 
ATOM     43  C   UNL     1      17.800  -6.996  13.864  1.00  0.00     0.339 A 
ATOM     44  C   UNL     1      15.638  -6.422  12.463  1.00  0.00     0.044 C 
ATOM     45  C   UNL     1      15.333  -5.080  11.876  1.00  0.00     0.010 C 
ATOM     46  O   UNL     1      17.759  -8.213  13.530  1.00  0.00    -0.246 OA
ENDBRANCH  31  32
ENDBRANCH  30  31
ENDBRANCH  27  30
ENDBRANCH  25  26
ENDBRANCH  24  25
ENDBRANCH   3  24
TORSDOF 11
ENDMDL
MODEL 3
REMARK VINA RESULT:   -11.590      2.175      7.542
REMARK INTER + INTRA:         -22.333
REMARK INTER:                 -18.485
REMARK INTRA:                  -3.847
REMARK UNBOUND:                -3.289
REMARK SMILES Cc1cc(OCC(=O)NCCNC(=O)c2cccc(COc3ccccc3C(N)=O)c2)c2c3c(c(=O)oc2c1)CCC3
REMARK SMILES IDX 14 1 13 2 12 3 15 5 16 6 31 7 17 8 19 9 18 10 20 11 21 12
REMARK SMILES IDX 22 13 27 14 23 15 26 16 24 17 25 18 28 19 29 20 30 21 11 24
REMARK SMILES IDX 10 25 9 26 7 27 8 29 6 30 5 31 4 32 3 33 32 34 2 35 38 36
REMARK SMILES IDX 33 37 1 38 39 39 37 40 34 41 42 42 35 43 40 44 41 45 36 46
REMARK H PARENT 12 4 29 22 29 23 9 28
REMARK Flexibility Score: inf
ROOT
ATOM      1  O   UNL     1      19.558  -0.139  12.961  1.00  0.00    -0.269 OA
ATOM      2  C   UNL     1      19.908   0.640  13.880  1.00  0.00     0.251 C 
ATOM      3  N   UNL     1      19.371   1.934  13.932  1.00  0.00    -0.350 N 
ATOM      4  H   UNL     1      19.659   2.581  14.690  1.00  0.00     0.163 HD
ENDROOT
BRANCH   2   5
ATOM      5  C   UNL     1      20.864   0.164  14.862  1.00  0.00     0.040 A 
ATOM      6  C   UNL     1      21.772  -0.853  14.523  1.00  0.00     0.014 A 
ATOM      7  C   UNL     1      20.931   0.664  16.132  1.00  0.00     0.021 A 
ATOM      8  C   UNL     1      22.688  -1.329  15.425  1.00  0.00     0.001 A 
ATOM      9  C   UNL     1      21.849   0.199  17.062  1.00  0.00    -0.010 A 
ATOM     10  C   UNL     1      22.729  -0.802  16.700  1.00  0.00     0.007 A 
BRANCH   9  11
ATOM     11  C   UNL     1      21.838   0.810  18.406  1.00  0.00     0.265 C 
BRANCH  11  12
ATOM     12  O   UNL     1      21.134   2.005  18.506  1.00  0.00    -0.488 OA
BRANCH  12  13
ATOM     13  C   UNL     1      19.916   2.215  19.099  1.00  0.00     0.132 A 
ATOM     14  C   UNL     1      19.949   2.680  20.417  1.00  0.00     0.081 A 
ATOM     15  C   UNL     1      18.708   2.000  18.490  1.00  0.00     0.047 A 
ATOM     16  C   UNL     1      18.779   2.930  21.126  1.00  0.00     0.018 A 
ATOM     17  C   UNL     1      17.549   2.248  19.194  1.00  0.00     0.004 A 
ATOM     18  C   UNL     1      17.576   2.707  20.493  1.00  0.00     0.001 A 
BRANCH  14  19
ATOM     19  C   UNL     1      21.214   2.920  21.097  1.00  0.00     0.252 C 
ATOM     20  N   UNL     1      22.198   3.768  20.551  1.00  0.00    -0.365 N 
ATOM     21  O   UNL     1      21.409   2.341  22.198  1.00  0.00    -0.269 OA
ATOM     22  H   UNL     1      22.719   4.435  21.161  1.00  0.00     0.159 HD
ATOM     23  H   UNL     1      22.393   3.712  19.518  1.00  0.00     0.159 HD
ENDBRANCH  14  19
ENDBRANCH  12  13
ENDBRANCH  11  12
ENDBRANCH   9  11
ENDBRANCH   2   5
BRANCH   3  24
ATOM     24  C   UNL     1      18.414   2.423  12.955  1.00  0.00     0.137 C 
BRANCH  24  25
ATOM     25  C   UNL     1      16.997   2.153  13.368  1.00  0.00     0.137 C 
BRANCH  25  26
ATOM     26  N   UNL     1      16.604   0.794  13.085  1.00  0.00    -0.351 N 
ATOM     27  C   UNL     1      16.205  -0.121  14.087  1.00  0.00     0.258 C 
ATOM     28  H   UNL     1      16.595   0.431  12.093  1.00  0.00     0.163 HD
ATOM     29  O   UNL     1      16.198   0.332  15.298  1.00  0.00    -0.271 OA
BRANCH  27  30
ATOM     30  C   UNL     1      15.806  -1.514  13.861  1.00  0.00     0.329 C 
BRANCH  30  31
ATOM     31  O   UNL     1      16.377  -2.369  14.835  1.00  0.00    -0.483 OA
BRANCH  31  32
ATOM     32  C   UNL     1      16.761  -3.665  14.443  1.00  0.00     0.131 A 
ATOM     33  C   UNL     1      16.025  -4.358  13.487  1.00  0.00     0.050 A 
ATOM     34  C   UNL     1      17.859  -4.240  15.001  1.00  0.00     0.063 A 
ATOM     35  C   UNL     1      16.360  -5.621  13.069  1.00  0.00    -0.044 A 
ATOM     36  C   UNL     1      18.234  -5.534  14.597  1.00  0.00     0.142 A 
ATOM     37  C   UNL     1      18.669  -3.663  15.957  1.00  0.00    -0.023 A 
ATOM     38  C   UNL     1      15.550  -6.353  12.033  1.00  0.00     0.044 C 
ATOM     39  C   UNL     1      17.479  -6.192  13.643  1.00  0.00     0.051 A 
ATOM     40  O   UNL     1      19.276  -6.136  15.094  1.00  0.00    -0.422 OA
ATOM     41  C   UNL     1      19.765  -4.305  16.474  1.00  0.00     0.042 A 
ATOM     42  C   UNL     1      18.513  -2.333  16.611  1.00  0.00     0.037 C 
ATOM     43  C   UNL     1      20.037  -5.582  15.996  1.00  0.00     0.339 A 
ATOM     44  C   UNL     1      20.417  -3.413  17.451  1.00  0.00     0.044 C 
ATOM     45  C   UNL     1      19.335  -2.472  17.879  1.00  0.00     0.010 C 
ATOM     46  O   UNL     1      21.050  -6.154  16.486  1.00  0.00    -0.246 OA
ENDBRANCH  31  32
ENDBRANCH  30  31
ENDBRANCH  27  30
ENDBRANCH  25  26
ENDBRANCH  24  25
ENDBRANCH   3  24
TORSDOF 11
ENDMDL
MODEL 4
REMARK VINA RESULT:   -11.554      2.254      5.315
REMARK INTER + INTRA:         -22.273
REMARK INTER:                 -19.860
REMARK INTRA:                  -2.413
REMARK UNBOUND:                -3.289
REMARK SMILES Cc1cc(OCC(=O)NCCNC(=O)c2cccc(COc3ccccc3C(N)=O)c2)c2c3c(c(=O)oc2c1)CCC3
REMARK SMILES IDX 14 1 13 2 12 3 15 5 16 6 31 7 17 8 19 9 18 10 20 11 21 12
REMARK SMILES IDX 22 13 27 14 23 15 26 16 24 17 25 18 28 19 29 20 30 21 11 24
REMARK SMILES IDX 10 25 9 26 7 27 8 29 6 30 5 31 4 32 3 33 32 34 2 35 38 36
REMARK SMILES IDX 33 37 1 38 39 39 37 40 34 41 42 42 35 43 40 44 41 45 36 46
REMARK H PARENT 12 4 29 22 29 23 9 28
REMARK Flexibility Score: inf
ROOT
ATOM      1  O   UNL     1      19.295  -1.029  14.212  1.00  0.00    -0.269 OA
ATOM      2  C   UNL     1      19.947  -1.843  14.909  1.00  0.00     0.251 C 
ATOM      3  N   UNL     1      21.283  -2.116  14.585  1.00  0.00    -0.350 N 
ATOM      4  H   UNL     1      21.825  -2.790  15.158  1.00  0.00     0.163 HD
ENDROOT
BRANCH   2   5
ATOM      5  C   UNL     1      19.283  -2.476  16.033  1.00  0.00     0.040 A 
ATOM      6  C   UNL     1      19.725  -2.225  17.342  1.00  0.00     0.014 A 
ATOM      7  C   UNL     1      18.225  -3.327  15.883  1.00  0.00     0.021 A 
ATOM      8  C   UNL     1      19.125  -2.807  18.428  1.00  0.00     0.001 A 
ATOM      9  C   UNL     1      17.601  -3.929  16.966  1.00  0.00    -0.010 A 
ATOM     10  C   UNL     1      18.058  -3.662  18.243  1.00  0.00     0.007 A 
BRANCH   9  11
ATOM     11  C   UNL     1      16.464  -4.830  16.693  1.00  0.00     0.265 C 
BRANCH  11  12
ATOM     12  O   UNL     1      15.745  -4.542  15.538  1.00  0.00    -0.488 OA
BRANCH  12  13
ATOM     13  C   UNL     1      15.722  -5.250  14.365  1.00  0.00     0.132 A 
ATOM     14  C   UNL     1      15.572  -4.496  13.197  1.00  0.00     0.081 A 
ATOM     15  C   UNL     1      15.834  -6.612  14.278  1.00  0.00     0.047 A 
ATOM     16  C   UNL     1      15.533  -5.100  11.945  1.00  0.00     0.018 A 
ATOM     17  C   UNL     1      15.794  -7.210  13.036  1.00  0.00     0.004 A 
ATOM     18  C   UNL     1      15.647  -6.472  11.882  1.00  0.00     0.001 A 
BRANCH  14  19
ATOM     19  C   UNL     1      15.450  -3.046  13.250  1.00  0.00     0.252 C 
ATOM     20  N   UNL     1      16.578  -2.205  13.162  1.00  0.00    -0.365 N 
ATOM     21  O   UNL     1      14.297  -2.557  13.380  1.00  0.00    -0.269 OA
ATOM     22  H   UNL     1      16.546  -1.336  12.586  1.00  0.00     0.159 HD
ATOM     23  H   UNL     1      17.448  -2.476  13.689  1.00  0.00     0.159 HD
ENDBRANCH  14  19
ENDBRANCH  12  13
ENDBRANCH  11  12
ENDBRANCH   9  11
ENDBRANCH   2   5
BRANCH   3  24
ATOM     24  C   UNL     1      21.959  -1.490  13.462  1.00  0.00     0.137 C 
BRANCH  24  25
ATOM     25  C   UNL     1      22.859  -0.371  13.896  1.00  0.00     0.137 C 
BRANCH  25  26
ATOM     26  N   UNL     1      22.377   0.271  15.095  1.00  0.00    -0.351 N 
ATOM     27  C   UNL     1      22.794  -0.103  16.394  1.00  0.00     0.258 C 
ATOM     28  H   UNL     1      21.684   1.067  15.040  1.00  0.00     0.163 HD
ATOM     29  O   UNL     1      23.657  -1.064  16.458  1.00  0.00    -0.271 OA
BRANCH  27  30
ATOM     30  C   UNL     1      22.333   0.505  17.647  1.00  0.00     0.329 C 
BRANCH  30  31
ATOM     31  O   UNL     1      21.606   1.694  17.394  1.00  0.00    -0.483 OA
BRANCH  31  32
ATOM     32  C   UNL     1      20.213   1.680  17.596  1.00  0.00     0.131 A 
ATOM     33  C   UNL     1      19.356   1.308  16.565  1.00  0.00     0.050 A 
ATOM     34  C   UNL     1      19.705   2.030  18.807  1.00  0.00     0.063 A 
ATOM     35  C   UNL     1      17.992   1.274  16.714  1.00  0.00    -0.044 A 
ATOM     36  C   UNL     1      18.311   2.008  18.997  1.00  0.00     0.142 A 
ATOM     37  C   UNL     1      20.443   2.421  19.904  1.00  0.00    -0.023 A 
ATOM     38  C   UNL     1      17.083   0.867  15.585  1.00  0.00     0.044 C 
ATOM     39  C   UNL     1      17.490   1.630  17.950  1.00  0.00     0.051 A 
ATOM     40  O   UNL     1      17.765   2.332  20.134  1.00  0.00    -0.422 OA
ATOM     41  C   UNL     1      19.859   2.760  21.099  1.00  0.00     0.042 A 
ATOM     42  C   UNL     1      21.920   2.584  20.007  1.00  0.00     0.037 C 
ATOM     43  C   UNL     1      18.472   2.697  21.167  1.00  0.00     0.339 A 
ATOM     44  C   UNL     1      20.920   3.108  22.062  1.00  0.00     0.044 C 
ATOM     45  C   UNL     1      22.087   3.496  21.208  1.00  0.00     0.010 C 
ATOM     46  O   UNL     1      17.955   3.014  22.275  1.00  0.00    -0.246 OA
ENDBRANCH  31  32
ENDBRANCH  30  31
ENDBRANCH  27  30
ENDBRANCH  25  26
ENDBRANCH  24  25
ENDBRANCH   3  24
TORSDOF 11
ENDMDL
MODEL 5
REMARK VINA RESULT:   -11.553      2.354      6.514
REMARK INTER + INTRA:         -22.272
REMARK INTER:                 -19.454
REMARK INTRA:                  -2.818
REMARK UNBOUND:                -3.289
REMARK SMILES Cc1cc(OCC(=O)NCCNC(=O)c2cccc(COc3ccccc3C(N)=O)c2)c2c3c(c(=O)oc2c1)CCC3
REMARK SMILES IDX 14 1 13 2 12 3 15 5 16 6 31 7 17 8 19 9 18 10 20 11 21 12
REMARK SMILES IDX 22 13 27 14 23 15 26 16 24 17 25 18 28 19 29 20 30 21 11 24
REMARK SMILES IDX 10 25 9 26 7 27 8 29 6 30 5 31 4 32 3 33 32 34 2 35 38 36
REMARK SMILES IDX 33 37 1 38 39 39 37 40 34 41 42 42 35 43 40 44 41 45 36 46
REMARK H PARENT 12 4 29 22 29 23 9 28
REMARK Flexibility Score: inf
ROOT
ATOM      1  O   UNL     1      25.046  -0.660  17.523  1.00  0.00    -0.269 OA
ATOM      2  C   UNL     1      24.485  -0.281  16.467  1.00  0.00     0.251 C 
ATOM      3  N   UNL     1      25.016   0.801  15.751  1.00  0.00    -0.350 N 
ATOM      4  H   UNL     1      24.553   1.118  14.878  1.00  0.00     0.163 HD
ENDROOT
BRANCH   2   5
ATOM      5  C   UNL     1      23.296  -0.986  16.027  1.00  0.00     0.040 A 
ATOM      6  C   UNL     1      23.039  -1.141  14.655  1.00  0.00     0.014 A 
ATOM      7  C   UNL     1      22.387  -1.519  16.897  1.00  0.00     0.021 A 
ATOM      8  C   UNL     1      21.924  -1.797  14.201  1.00  0.00     0.001 A 
ATOM      9  C   UNL     1      21.252  -2.188  16.462  1.00  0.00    -0.010 A 
ATOM     10  C   UNL     1      21.026  -2.325  15.106  1.00  0.00     0.007 A 
BRANCH   9  11
ATOM     11  C   UNL     1      20.336  -2.728  17.486  1.00  0.00     0.265 C 
BRANCH  11  12
ATOM     12  O   UNL     1      18.993  -2.420  17.299  1.00  0.00    -0.488 OA
BRANCH  12  13
ATOM     13  C   UNL     1      17.930  -3.285  17.262  1.00  0.00     0.132 A 
ATOM     14  C   UNL     1      16.957  -3.018  16.294  1.00  0.00     0.081 A 
ATOM     15  C   UNL     1      17.776  -4.362  18.095  1.00  0.00     0.047 A 
ATOM     16  C   UNL     1      15.832  -3.825  16.158  1.00  0.00     0.018 A 
ATOM     17  C   UNL     1      16.660  -5.160  17.959  1.00  0.00     0.004 A 
ATOM     18  C   UNL     1      15.697  -4.902  17.007  1.00  0.00     0.001 A 
BRANCH  14  19
ATOM     19  C   UNL     1      17.087  -1.883  15.391  1.00  0.00     0.252 C 
ATOM     20  N   UNL     1      17.685  -2.013  14.122  1.00  0.00    -0.365 N 
ATOM     21  O   UNL     1      16.646  -0.770  15.780  1.00  0.00    -0.269 OA
ATOM     22  H   UNL     1      17.269  -1.540  13.291  1.00  0.00     0.159 HD
ATOM     23  H   UNL     1      18.557  -2.596  14.035  1.00  0.00     0.159 HD
ENDBRANCH  14  19
ENDBRANCH  12  13
ENDBRANCH  11  12
ENDBRANCH   9  11
ENDBRANCH   2   5
BRANCH   3  24
ATOM     24  C   UNL     1      26.205   1.516  16.182  1.00  0.00     0.137 C 
BRANCH  24  25
ATOM     25  C   UNL     1      25.928   2.968  16.439  1.00  0.00     0.137 C 
BRANCH  25  26
ATOM     26  N   UNL     1      24.651   3.167  17.079  1.00  0.00    -0.351 N 
ATOM     27  C   UNL     1      24.419   2.891  18.447  1.00  0.00     0.258 C 
ATOM     28  H   UNL     1      23.827   3.541  16.534  1.00  0.00     0.163 HD
ATOM     29  O   UNL     1      25.435   2.452  19.116  1.00  0.00    -0.271 OA
BRANCH  27  30
ATOM     30  C   UNL     1      23.143   3.064  19.149  1.00  0.00     0.329 C 
BRANCH  30  31
ATOM     31  O   UNL     1      22.403   1.856  19.158  1.00  0.00    -0.483 OA
BRANCH  31  32
ATOM     32  C   UNL     1      21.195   1.807  18.439  1.00  0.00     0.131 A 
ATOM     33  C   UNL     1      21.195   1.497  17.082  1.00  0.00     0.050 A 
ATOM     34  C   UNL     1      20.021   2.062  19.074  1.00  0.00     0.063 A 
ATOM     35  C   UNL     1      20.045   1.433  16.338  1.00  0.00    -0.044 A 
ATOM     36  C   UNL     1      18.820   2.005  18.344  1.00  0.00     0.142 A 
ATOM     37  C   UNL     1      19.885   2.382  20.409  1.00  0.00    -0.023 A 
ATOM     38  C   UNL     1      20.068   1.095  14.871  1.00  0.00     0.044 C 
ATOM     39  C   UNL     1      18.859   1.692  16.998  1.00  0.00     0.051 A 
ATOM     40  O   UNL     1      17.665   2.238  18.899  1.00  0.00    -0.422 OA
ATOM     41  C   UNL     1      18.664   2.626  20.984  1.00  0.00     0.042 A 
ATOM     42  C   UNL     1      20.961   2.559  21.425  1.00  0.00     0.037 C 
ATOM     43  C   UNL     1      17.547   2.538  20.162  1.00  0.00     0.339 A 
ATOM     44  C   UNL     1      18.866   2.919  22.416  1.00  0.00     0.044 C 
ATOM     45  C   UNL     1      20.285   3.385  22.505  1.00  0.00     0.010 C 
ATOM     46  O   UNL     1      16.433   2.767  20.712  1.00  0.00    -0.246 OA
ENDBRANCH  31  32
ENDBRANCH  30  31
ENDBRANCH  27  30
ENDBRANCH  25  26
ENDBRANCH  24  25
ENDBRANCH   3  24
TORSDOF 11
ENDMDL
MODEL 6
REMARK VINA RESULT:   -11.465      1.459      3.135
REMARK INTER + INTRA:         -22.127
REMARK INTER:                 -19.472
REMARK INTRA:                  -2.655
REMARK UNBOUND:                -3.289
REMARK SMILES Cc1cc(OCC(=O)NCCNC(=O)c2cccc(COc3ccccc3C(N)=O)c2)c2c3c(c(=O)oc2c1)CCC3
REMARK SMILES IDX 14 1 13 2 12 3 15 5 16 6 31 7 17 8 19 9 18 10 20 11 21 12
REMARK SMILES IDX 22 13 27 14 23 15 26 16 24 17 25 18 28 19 29 20 30 21 11 24
REMARK SMILES IDX 10 25 9 26 7 27 8 29 6 30 5 31 4 32 3 33 32 34 2 35 38 36
REMARK SMILES IDX 33 37 1 38 39 39 37 40 34 41 42 42 35 43 40 44 41 45 36 46
REMARK H PARENT 12 4 29 22 29 23 9 28
REMARK Flexibility Score: inf
ROOT
ATOM      1  O   UNL     1      15.827  -0.384  13.625  1.00  0.00    -0.269 OA
ATOM      2  C   UNL     1      16.563  -1.323  13.239  1.00  0.00     0.251 C 
ATOM      3  N   UNL     1      17.504  -1.093  12.225  1.00  0.00    -0.350 N 
ATOM      4  H   UNL     1      18.113  -1.868  11.902  1.00  0.00     0.163 HD
ENDROOT
BRANCH   2   5
ATOM      5  C   UNL     1      16.408  -2.624  13.864  1.00  0.00     0.040 A 
ATOM      6  C   UNL     1      16.120  -3.750  13.077  1.00  0.00     0.014 A 
ATOM      7  C   UNL     1      16.530  -2.816  15.211  1.00  0.00     0.021 A 
ATOM      8  C   UNL     1      15.964  -4.994  13.632  1.00  0.00     0.001 A 
ATOM      9  C   UNL     1      16.377  -4.064  15.796  1.00  0.00    -0.010 A 
ATOM     10  C   UNL     1      16.093  -5.155  14.997  1.00  0.00     0.007 A 
BRANCH   9  11
ATOM     11  C   UNL     1      16.531  -4.162  17.261  1.00  0.00     0.265 C 
BRANCH  11  12
ATOM     12  O   UNL     1      17.836  -4.342  17.707  1.00  0.00    -0.488 OA
BRANCH  12  13
ATOM     13  C   UNL     1      18.897  -3.485  17.567  1.00  0.00     0.132 A 
ATOM     14  C   UNL     1      19.954  -3.944  16.776  1.00  0.00     0.081 A 
ATOM     15  C   UNL     1      18.973  -2.245  18.142  1.00  0.00     0.047 A 
ATOM     16  C   UNL     1      21.086  -3.166  16.559  1.00  0.00     0.018 A 
ATOM     17  C   UNL     1      20.097  -1.475  17.927  1.00  0.00     0.004 A 
ATOM     18  C   UNL     1      21.142  -1.921  17.148  1.00  0.00     0.001 A 
BRANCH  14  19
ATOM     19  C   UNL     1      19.908  -5.258  16.149  1.00  0.00     0.252 C 
ATOM     20  N   UNL     1      19.942  -6.442  16.911  1.00  0.00    -0.365 N 
ATOM     21  O   UNL     1      19.838  -5.307  14.894  1.00  0.00    -0.269 OA
ATOM     22  H   UNL     1      19.320  -7.245  16.669  1.00  0.00     0.159 HD
ATOM     23  H   UNL     1      20.606  -6.497  17.726  1.00  0.00     0.159 HD
ENDBRANCH  14  19
ENDBRANCH  12  13
ENDBRANCH  11  12
ENDBRANCH   9  11
ENDBRANCH   2   5
BRANCH   3  24
ATOM     24  C   UNL     1      17.668   0.203  11.590  1.00  0.00     0.137 C 
BRANCH  24  25
ATOM     25  C   UNL     1      17.807   1.310  12.594  1.00  0.00     0.137 C 
BRANCH  25  26
ATOM     26  N   UNL     1      19.047   1.219  13.325  1.00  0.00    -0.351 N 
ATOM     27  C   UNL     1      19.134   1.389  14.726  1.00  0.00     0.258 C 
ATOM     28  H   UNL     1      19.954   1.010  12.824  1.00  0.00     0.163 HD
ATOM     29  O   UNL     1      18.020   1.625  15.339  1.00  0.00    -0.271 OA
BRANCH  27  30
ATOM     30  C   UNL     1      20.365   1.318  15.521  1.00  0.00     0.329 C 
BRANCH  30  31
ATOM     31  O   UNL     1      20.096   1.550  16.892  1.00  0.00    -0.483 OA
BRANCH  31  32
ATOM     32  C   UNL     1      21.182   1.792  17.754  1.00  0.00     0.131 A 
ATOM     33  C   UNL     1      22.488   1.631  17.302  1.00  0.00     0.050 A 
ATOM     34  C   UNL     1      20.951   2.188  19.033  1.00  0.00     0.063 A 
ATOM     35  C   UNL     1      23.580   1.858  18.101  1.00  0.00    -0.044 A 
ATOM     36  C   UNL     1      22.046   2.431  19.883  1.00  0.00     0.142 A 
ATOM     37  C   UNL     1      19.710   2.380  19.602  1.00  0.00    -0.023 A 
ATOM     38  C   UNL     1      24.985   1.679  17.592  1.00  0.00     0.044 C 
ATOM     39  C   UNL     1      23.330   2.262  19.398  1.00  0.00     0.051 A 
ATOM     40  O   UNL     1      21.888   2.813  21.117  1.00  0.00    -0.422 OA
ATOM     41  C   UNL     1      19.554   2.783  20.903  1.00  0.00     0.042 A 
ATOM     42  C   UNL     1      18.372   2.167  18.981  1.00  0.00     0.037 C 
ATOM     43  C   UNL     1      20.711   2.994  21.645  1.00  0.00     0.339 A 
ATOM     44  C   UNL     1      18.113   2.911  21.189  1.00  0.00     0.044 C 
ATOM     45  C   UNL     1      17.451   2.027  20.179  1.00  0.00     0.010 C 
ATOM     46  O   UNL     1      20.544   3.364  22.841  1.00  0.00    -0.246 OA
ENDBRANCH  31  32
ENDBRANCH  30  31
ENDBRANCH  27  30
ENDBRANCH  25  26
ENDBRANCH  24  25
ENDBRANCH   3  24
TORSDOF 11
ENDMDL
MODEL 7
REMARK VINA RESULT:   -11.381      3.110      6.681
REMARK INTER + INTRA:         -21.990
REMARK INTER:                 -17.487
REMARK INTRA:                  -4.503
REMARK UNBOUND:                -3.289
REMARK SMILES Cc1cc(OCC(=O)NCCNC(=O)c2cccc(COc3ccccc3C(N)=O)c2)c2c3c(c(=O)oc2c1)CCC3
REMARK SMILES IDX 14 1 13 2 12 3 15 5 16 6 31 7 17 8 19 9 18 10 20 11 21 12
REMARK SMILES IDX 22 13 27 14 23 15 26 16 24 17 25 18 28 19 29 20 30 21 11 24
REMARK SMILES IDX 10 25 9 26 7 27 8 29 6 30 5 31 4 32 3 33 32 34 2 35 38 36
REMARK SMILES IDX 33 37 1 38 39 39 37 40 34 41 42 42 35 43 40 44 41 45 36 46
REMARK H PARENT 12 4 29 22 29 23 9 28
REMARK Flexibility Score: inf
ROOT
ATOM      1  O   UNL     1      18.138   0.882  14.802  1.00  0.00    -0.269 OA
ATOM      2  C   UNL     1      18.751   0.093  14.044  1.00  0.00     0.251 C 
ATOM      3  N   UNL     1      18.043  -0.918  13.379  1.00  0.00    -0.350 N 
ATOM      4  H   UNL     1      18.547  -1.573  12.752  1.00  0.00     0.163 HD
ENDROOT
BRANCH   2   5
ATOM      5  C   UNL     1      20.183   0.261  13.885  1.00  0.00     0.040 A 
ATOM      6  C   UNL     1      20.937  -0.724  13.227  1.00  0.00     0.014 A 
ATOM      7  C   UNL     1      20.856   1.354  14.354  1.00  0.00     0.021 A 
ATOM      8  C   UNL     1      22.292  -0.601  13.060  1.00  0.00     0.001 A 
ATOM      9  C   UNL     1      22.227   1.502  14.197  1.00  0.00    -0.010 A 
ATOM     10  C   UNL     1      22.942   0.516  13.546  1.00  0.00     0.007 A 
BRANCH   9  11
ATOM     11  C   UNL     1      22.855   2.723  14.740  1.00  0.00     0.265 C 
BRANCH  11  12
ATOM     12  O   UNL     1      23.680   3.407  13.853  1.00  0.00    -0.488 OA
BRANCH  12  13
ATOM     13  C   UNL     1      24.093   4.711  13.927  1.00  0.00     0.132 A 
ATOM     14  C   UNL     1      25.407   4.914  14.358  1.00  0.00     0.081 A 
ATOM     15  C   UNL     1      23.312   5.792  13.611  1.00  0.00     0.047 A 
ATOM     16  C   UNL     1      25.942   6.193  14.474  1.00  0.00     0.018 A 
ATOM     17  C   UNL     1      23.843   7.059  13.728  1.00  0.00     0.004 A 
ATOM     18  C   UNL     1      25.139   7.265  14.152  1.00  0.00     0.001 A 
BRANCH  14  19
ATOM     19  C   UNL     1      26.266   3.790  14.702  1.00  0.00     0.252 C 
ATOM     20  N   UNL     1      26.208   3.175  15.969  1.00  0.00    -0.365 N 
ATOM     21  O   UNL     1      27.073   3.377  13.828  1.00  0.00    -0.269 OA
ATOM     22  H   UNL     1      26.250   2.136  16.055  1.00  0.00     0.159 HD
ATOM     23  H   UNL     1      26.120   3.787  16.821  1.00  0.00     0.159 HD
ENDBRANCH  14  19
ENDBRANCH  12  13
ENDBRANCH  11  12
ENDBRANCH   9  11
ENDBRANCH   2   5
BRANCH   3  24
ATOM     24  C   UNL     1      16.610  -1.099  13.531  1.00  0.00     0.137 C 
BRANCH  24  25
ATOM     25  C   UNL     1      16.277  -2.133  14.565  1.00  0.00     0.137 C 
BRANCH  25  26
ATOM     26  N   UNL     1      16.917  -1.856  15.828  1.00  0.00    -0.351 N 
ATOM     27  C   UNL     1      18.105  -2.496  16.251  1.00  0.00     0.258 C 
ATOM     28  H   UNL     1      16.511  -1.140  16.492  1.00  0.00     0.163 HD
ATOM     29  O   UNL     1      18.610  -3.355  15.428  1.00  0.00    -0.271 OA
BRANCH  27  30
ATOM     30  C   UNL     1      18.794  -2.261  17.525  1.00  0.00     0.329 C 
BRANCH  30  31
ATOM     31  O   UNL     1      19.964  -1.487  17.332  1.00  0.00    -0.483 OA
BRANCH  31  32
ATOM     32  C   UNL     1      20.000  -0.186  17.867  1.00  0.00     0.131 A 
ATOM     33  C   UNL     1      18.825   0.441  18.271  1.00  0.00     0.050 A 
ATOM     34  C   UNL     1      21.189   0.458  17.991  1.00  0.00     0.063 A 
ATOM     35  C   UNL     1      18.808   1.706  18.803  1.00  0.00    -0.044 A 
ATOM     36  C   UNL     1      21.212   1.757  18.532  1.00  0.00     0.142 A 
ATOM     37  C   UNL     1      22.419  -0.049  17.626  1.00  0.00    -0.023 A 
ATOM     38  C   UNL     1      17.526   2.366  19.235  1.00  0.00     0.044 C 
ATOM     39  C   UNL     1      20.025   2.348  18.925  1.00  0.00     0.051 A 
ATOM     40  O   UNL     1      22.320   2.424  18.677  1.00  0.00    -0.422 OA
ATOM     41  C   UNL     1      23.582   0.661  17.783  1.00  0.00     0.042 A 
ATOM     42  C   UNL     1      22.719  -1.365  16.994  1.00  0.00     0.037 C 
ATOM     43  C   UNL     1      23.478   1.935  18.331  1.00  0.00     0.339 A 
ATOM     44  C   UNL     1      24.709  -0.167  17.316  1.00  0.00     0.044 C 
ATOM     45  C   UNL     1      24.086  -1.148  16.372  1.00  0.00     0.010 C 
ATOM     46  O   UNL     1      24.561   2.571  18.466  1.00  0.00    -0.246 OA
ENDBRANCH  31  32
ENDBRANCH  30  31
ENDBRANCH  27  30
ENDBRANCH  25  26
ENDBRANCH  24  25
ENDBRANCH   3  24
TORSDOF 11
ENDMDL
MODEL 8
REMARK VINA RESULT:   -11.312      2.276      6.052
REMARK INTER + INTRA:         -21.875
REMARK INTER:                 -17.620
REMARK INTRA:                  -4.255
REMARK UNBOUND:                -3.289
REMARK SMILES Cc1cc(OCC(=O)NCCNC(=O)c2cccc(COc3ccccc3C(N)=O)c2)c2c3c(c(=O)oc2c1)CCC3
REMARK SMILES IDX 14 1 13 2 12 3 15 5 16 6 31 7 17 8 19 9 18 10 20 11 21 12
REMARK SMILES IDX 22 13 27 14 23 15 26 16 24 17 25 18 28 19 29 20 30 21 11 24
REMARK SMILES IDX 10 25 9 26 7 27 8 29 6 30 5 31 4 32 3 33 32 34 2 35 38 36
REMARK SMILES IDX 33 37 1 38 39 39 37 40 34 41 42 42 35 43 40 44 41 45 36 46
REMARK H PARENT 12 4 29 22 29 23 9 28
REMARK Flexibility Score: inf
ROOT
ATOM      1  O   UNL     1      25.109  -0.763  17.605  1.00  0.00    -0.269 OA
ATOM      2  C   UNL     1      24.484  -0.311  16.616  1.00  0.00     0.251 C 
ATOM      3  N   UNL     1      25.002   0.786  15.913  1.00  0.00    -0.350 N 
ATOM      4  H   UNL     1      24.486   1.164  15.096  1.00  0.00     0.163 HD
ENDROOT
BRANCH   2   5
ATOM      5  C   UNL     1      23.236  -0.947  16.238  1.00  0.00     0.040 A 
ATOM      6  C   UNL     1      23.081  -1.478  14.947  1.00  0.00     0.014 A 
ATOM      7  C   UNL     1      22.175  -1.059  17.091  1.00  0.00     0.021 A 
ATOM      8  C   UNL     1      21.916  -2.083  14.553  1.00  0.00     0.001 A 
ATOM      9  C   UNL     1      20.985  -1.668  16.716  1.00  0.00    -0.010 A 
ATOM     10  C   UNL     1      20.863  -2.181  15.439  1.00  0.00     0.007 A 
BRANCH   9  11
ATOM     11  C   UNL     1      19.902  -1.738  17.716  1.00  0.00     0.265 C 
BRANCH  11  12
ATOM     12  O   UNL     1      18.629  -1.940  17.194  1.00  0.00    -0.488 OA
BRANCH  12  13
ATOM     13  C   UNL     1      17.830  -3.045  17.335  1.00  0.00     0.132 A 
ATOM     14  C   UNL     1      16.781  -3.163  16.417  1.00  0.00     0.081 A 
ATOM     15  C   UNL     1      17.997  -4.007  18.295  1.00  0.00     0.047 A 
ATOM     16  C   UNL     1      15.902  -4.240  16.457  1.00  0.00     0.018 A 
ATOM     17  C   UNL     1      17.124  -5.074  18.334  1.00  0.00     0.004 A 
ATOM     18  C   UNL     1      16.089  -5.196  17.432  1.00  0.00     0.001 A 
BRANCH  14  19
ATOM     19  C   UNL     1      16.572  -2.159  15.383  1.00  0.00     0.252 C 
ATOM     20  N   UNL     1      17.584  -1.825  14.461  1.00  0.00    -0.365 N 
ATOM     21  O   UNL     1      15.450  -1.590  15.335  1.00  0.00    -0.269 OA
ATOM     22  H   UNL     1      17.355  -1.682  13.453  1.00  0.00     0.159 HD
ATOM     23  H   UNL     1      18.571  -1.725  14.813  1.00  0.00     0.159 HD
ENDBRANCH  14  19
ENDBRANCH  12  13
ENDBRANCH  11  12
ENDBRANCH   9  11
ENDBRANCH   2   5
BRANCH   3  24
ATOM     24  C   UNL     1      26.248   1.434  16.282  1.00  0.00     0.137 C 
BRANCH  24  25
ATOM     25  C   UNL     1      26.021   2.764  16.937  1.00  0.00     0.137 C 
BRANCH  25  26
ATOM     26  N   UNL     1      24.656   2.922  17.374  1.00  0.00    -0.351 N 
ATOM     27  C   UNL     1      24.200   2.518  18.651  1.00  0.00     0.258 C 
ATOM     28  H   UNL     1      23.934   3.363  16.740  1.00  0.00     0.163 HD
ATOM     29  O   UNL     1      25.090   1.998  19.432  1.00  0.00    -0.271 OA
BRANCH  27  30
ATOM     30  C   UNL     1      22.825   2.644  19.146  1.00  0.00     0.329 C 
BRANCH  30  31
ATOM     31  O   UNL     1      21.892   2.276  18.147  1.00  0.00    -0.483 OA
BRANCH  31  32
ATOM     32  C   UNL     1      20.539   2.148  18.511  1.00  0.00     0.131 A 
ATOM     33  C   UNL     1      20.155   2.262  19.844  1.00  0.00     0.050 A 
ATOM     34  C   UNL     1      19.602   1.916  17.555  1.00  0.00     0.063 A 
ATOM     35  C   UNL     1      18.849   2.151  20.250  1.00  0.00    -0.044 A 
ATOM     36  C   UNL     1      18.252   1.795  17.932  1.00  0.00     0.142 A 
ATOM     37  C   UNL     1      19.851   1.780  16.205  1.00  0.00    -0.023 A 
ATOM     38  C   UNL     1      18.456   2.278  21.697  1.00  0.00     0.044 C 
ATOM     39  C   UNL     1      17.908   1.916  19.266  1.00  0.00     0.051 A 
ATOM     40  O   UNL     1      17.311   1.574  17.061  1.00  0.00    -0.422 OA
ATOM     41  C   UNL     1      18.852   1.547  15.295  1.00  0.00     0.042 A 
ATOM     42  C   UNL     1      21.166   1.814  15.505  1.00  0.00     0.037 C 
ATOM     43  C   UNL     1      17.555   1.449  15.787  1.00  0.00     0.339 A 
ATOM     44  C   UNL     1      19.447   1.472  13.948  1.00  0.00     0.044 C 
ATOM     45  C   UNL     1      20.879   1.111  14.192  1.00  0.00     0.010 C 
ATOM     46  O   UNL     1      16.651   1.234  14.932  1.00  0.00    -0.246 OA
ENDBRANCH  31  32
ENDBRANCH  30  31
ENDBRANCH  27  30
ENDBRANCH  25  26
ENDBRANCH  24  25
ENDBRANCH   3  24
TORSDOF 11
ENDMDL
MODEL 9
REMARK VINA RESULT:   -11.189      3.565      6.304
REMARK INTER + INTRA:         -21.673
REMARK INTER:                 -19.399
REMARK INTRA:                  -2.274
REMARK UNBOUND:                -3.289
REMARK SMILES Cc1cc(OCC(=O)NCCNC(=O)c2cccc(COc3ccccc3C(N)=O)c2)c2c3c(c(=O)oc2c1)CCC3
REMARK SMILES IDX 14 1 13 2 12 3 15 5 16 6 31 7 17 8 19 9 18 10 20 11 21 12
REMARK SMILES IDX 22 13 27 14 23 15 26 16 24 17 25 18 28 19 29 20 30 21 11 24
REMARK SMILES IDX 10 25 9 26 7 27 8 29 6 30 5 31 4 32 3 33 32 34 2 35 38 36
REMARK SMILES IDX 33 37 1 38 39 39 37 40 34 41 42 42 35 43 40 44 41 45 36 46
REMARK H PARENT 12 4 29 22 29 23 9 28
REMARK Flexibility Score: inf
ROOT
ATOM      1  O   UNL     1      18.756  -6.562  14.710  1.00  0.00    -0.269 OA
ATOM      2  C   UNL     1      18.402  -5.359  14.691  1.00  0.00     0.251 C 
ATOM      3  N   UNL     1      19.128  -4.413  15.430  1.00  0.00    -0.350 N 
ATOM      4  H   UNL     1      18.837  -3.417  15.418  1.00  0.00     0.163 HD
ENDROOT
BRANCH   2   5
ATOM      5  C   UNL     1      17.243  -4.992  13.900  1.00  0.00     0.040 A 
ATOM      6  C   UNL     1      16.595  -3.767  14.129  1.00  0.00     0.014 A 
ATOM      7  C   UNL     1      16.734  -5.794  12.918  1.00  0.00     0.021 A 
ATOM      8  C   UNL     1      15.496  -3.387  13.403  1.00  0.00     0.001 A 
ATOM      9  C   UNL     1      15.623  -5.433  12.170  1.00  0.00    -0.010 A 
ATOM     10  C   UNL     1      15.006  -4.221  12.418  1.00  0.00     0.007 A 
BRANCH   9  11
ATOM     11  C   UNL     1      15.156  -6.373  11.132  1.00  0.00     0.265 C 
BRANCH  11  12
ATOM     12  O   UNL     1      15.689  -7.655  11.213  1.00  0.00    -0.488 OA
BRANCH  12  13
ATOM     13  C   UNL     1      16.061  -8.476  10.181  1.00  0.00     0.132 A 
ATOM     14  C   UNL     1      17.357  -8.995  10.248  1.00  0.00     0.081 A 
ATOM     15  C   UNL     1      15.258  -8.804   9.121  1.00  0.00     0.047 A 
ATOM     16  C   UNL     1      17.851  -9.841   9.261  1.00  0.00     0.018 A 
ATOM     17  C   UNL     1      15.749  -9.641   8.141  1.00  0.00     0.004 A 
ATOM     18  C   UNL     1      17.026 -10.157   8.203  1.00  0.00     0.001 A 
BRANCH  14  19
ATOM     19  C   UNL     1      18.240  -8.669  11.360  1.00  0.00     0.252 C 
ATOM     20  N   UNL     1      17.913  -9.009  12.688  1.00  0.00    -0.365 N 
ATOM     21  O   UNL     1      19.314  -8.067  11.101  1.00  0.00    -0.269 OA
ATOM     22  H   UNL     1      18.642  -9.389  13.331  1.00  0.00     0.159 HD
ATOM     23  H   UNL     1      16.921  -8.872  13.012  1.00  0.00     0.159 HD
ENDBRANCH  14  19
ENDBRANCH  12  13
ENDBRANCH  11  12
ENDBRANCH   9  11
ENDBRANCH   2   5
BRANCH   3  24
ATOM     24  C   UNL     1      20.288  -4.767  16.228  1.00  0.00     0.137 C 
BRANCH  24  25
ATOM     25  C   UNL     1      20.882  -3.576  16.921  1.00  0.00     0.137 C 
BRANCH  25  26
ATOM     26  N   UNL     1      21.009  -2.446  16.034  1.00  0.00    -0.351 N 
ATOM     27  C   UNL     1      21.945  -1.405  16.235  1.00  0.00     0.258 C 
ATOM     28  H   UNL     1      20.394  -2.360  15.178  1.00  0.00     0.163 HD
ATOM     29  O   UNL     1      22.709  -1.523  17.271  1.00  0.00    -0.271 OA
BRANCH  27  30
ATOM     30  C   UNL     1      22.113  -0.230  15.374  1.00  0.00     0.329 C 
BRANCH  30  31
ATOM     31  O   UNL     1      21.581   0.929  15.990  1.00  0.00    -0.483 OA
BRANCH  31  32
ATOM     32  C   UNL     1      20.183   1.083  16.028  1.00  0.00     0.131 A 
ATOM     33  C   UNL     1      19.414   0.813  14.900  1.00  0.00     0.050 A 
ATOM     34  C   UNL     1      19.581   1.494  17.175  1.00  0.00     0.063 A 
ATOM     35  C   UNL     1      18.049   0.943  14.887  1.00  0.00    -0.044 A 
ATOM     36  C   UNL     1      18.182   1.640  17.201  1.00  0.00     0.142 A 
ATOM     37  C   UNL     1      20.227   1.796  18.356  1.00  0.00    -0.023 A 
ATOM     38  C   UNL     1      17.236   0.646  13.656  1.00  0.00     0.044 C 
ATOM     39  C   UNL     1      17.451   1.361  16.061  1.00  0.00     0.051 A 
ATOM     40  O   UNL     1      17.549   2.029  18.270  1.00  0.00    -0.422 OA
ATOM     41  C   UNL     1      19.551   2.205  19.478  1.00  0.00     0.042 A 
ATOM     42  C   UNL     1      21.691   1.781  18.632  1.00  0.00     0.037 C 
ATOM     43  C   UNL     1      18.168   2.309  19.382  1.00  0.00     0.339 A 
ATOM     44  C   UNL     1      20.526   2.426  20.562  1.00  0.00     0.044 C 
ATOM     45  C   UNL     1      21.822   2.669  19.856  1.00  0.00     0.010 C 
ATOM     46  O   UNL     1      17.567   2.688  20.426  1.00  0.00    -0.246 OA
ENDBRANCH  31  32
ENDBRANCH  30  31
ENDBRANCH  27  30
ENDBRANCH  25  26
ENDBRANCH  24  25
ENDBRANCH   3  24
TORSDOF 11
ENDMDL
MODEL 10
REMARK VINA RESULT:   -11.098      2.445      7.695
REMARK INTER + INTRA:         -21.524
REMARK INTER:                 -18.000
REMARK INTRA:                  -3.523
REMARK UNBOUND:                -3.289
REMARK SMILES Cc1cc(OCC(=O)NCCNC(=O)c2cccc(COc3ccccc3C(N)=O)c2)c2c3c(c(=O)oc2c1)CCC3
REMARK SMILES IDX 14 1 13 2 12 3 15 5 16 6 31 7 17 8 19 9 18 10 20 11 21 12
REMARK SMILES IDX 22 13 27 14 23 15 26 16 24 17 25 18 28 19 29 20 30 21 11 24
REMARK SMILES IDX 10 25 9 26 7 27 8 29 6 30 5 31 4 32 3 33 32 34 2 35 38 36
REMARK SMILES IDX 33 37 1 38 39 39 37 40 34 41 42 42 35 43 40 44 41 45 36 46
REMARK H PARENT 12 4 29 22 29 23 9 28
REMARK Flexibility Score: inf
ROOT
ATOM      1  O   UNL     1      18.641  -0.040  12.396  1.00  0.00    -0.269 OA
ATOM      2  C   UNL     1      19.329   0.617  13.213  1.00  0.00     0.251 C 
ATOM      3  N   UNL     1      18.895   1.886  13.620  1.00  0.00    -0.350 N 
ATOM      4  H   UNL     1      19.463   2.433  14.295  1.00  0.00     0.163 HD
ENDROOT
BRANCH   2   5
ATOM      5  C   UNL     1      20.561   0.030  13.708  1.00  0.00     0.040 A 
ATOM      6  C   UNL     1      21.264  -0.894  12.919  1.00  0.00     0.014 A 
ATOM      7  C   UNL     1      21.086   0.335  14.932  1.00  0.00     0.021 A 
ATOM      8  C   UNL     1      22.429  -1.471  13.353  1.00  0.00     0.001 A 
ATOM      9  C   UNL     1      22.263  -0.235  15.394  1.00  0.00    -0.010 A 
ATOM     10  C   UNL     1      22.933  -1.142  14.595  1.00  0.00     0.007 A 
BRANCH   9  11
ATOM     11  C   UNL     1      22.744   0.165  16.731  1.00  0.00     0.265 C 
BRANCH  11  12
ATOM     12  O   UNL     1      22.447   1.473  17.098  1.00  0.00    -0.488 OA
BRANCH  12  13
ATOM     13  C   UNL     1      21.910   1.912  18.280  1.00  0.00     0.132 A 
ATOM     14  C   UNL     1      22.803   2.512  19.173  1.00  0.00     0.081 A 
ATOM     15  C   UNL     1      20.589   1.797  18.623  1.00  0.00     0.047 A 
ATOM     16  C   UNL     1      22.378   2.998  20.405  1.00  0.00     0.018 A 
ATOM     17  C   UNL     1      20.169   2.278  19.846  1.00  0.00     0.004 A 
ATOM     18  C   UNL     1      21.045   2.871  20.729  1.00  0.00     0.001 A 
BRANCH  14  19
ATOM     19  C   UNL     1      24.215   2.652  18.843  1.00  0.00     0.252 C 
ATOM     20  N   UNL     1      24.694   3.743  18.092  1.00  0.00    -0.365 N 
ATOM     21  O   UNL     1      25.004   1.760  19.250  1.00  0.00    -0.269 OA
ATOM     22  H   UNL     1      25.583   4.219  18.360  1.00  0.00     0.159 HD
ATOM     23  H   UNL     1      24.135   4.066  17.261  1.00  0.00     0.159 HD
ENDBRANCH  14  19
ENDBRANCH  12  13
ENDBRANCH  11  12
ENDBRANCH   9  11
ENDBRANCH   2   5
BRANCH   3  24
ATOM     24  C   UNL     1      17.666   2.486  13.132  1.00  0.00     0.137 C 
BRANCH  24  25
ATOM     25  C   UNL     1      16.520   2.277  14.079  1.00  0.00     0.137 C 
BRANCH  25  26
ATOM     26  N   UNL     1      16.202   0.879  14.237  1.00  0.00    -0.351 N 
ATOM     27  C   UNL     1      16.643   0.104  15.335  1.00  0.00     0.258 C 
ATOM     28  H   UNL     1      15.607   0.377  13.522  1.00  0.00     0.163 HD
ATOM     29  O   UNL     1      17.353   0.725  16.219  1.00  0.00    -0.271 OA
BRANCH  27  30
ATOM     30  C   UNL     1      16.359  -1.320  15.543  1.00  0.00     0.329 C 
BRANCH  30  31
ATOM     31  O   UNL     1      16.989  -2.112  14.552  1.00  0.00    -0.483 OA
BRANCH  31  32
ATOM     32  C   UNL     1      17.945  -3.060  14.963  1.00  0.00     0.131 A 
ATOM     33  C   UNL     1      18.998  -2.684  15.792  1.00  0.00     0.050 A 
ATOM     34  C   UNL     1      17.835  -4.349  14.550  1.00  0.00     0.063 A 
ATOM     35  C   UNL     1      19.952  -3.570  16.223  1.00  0.00    -0.044 A 
ATOM     36  C   UNL     1      18.795  -5.288  14.971  1.00  0.00     0.142 A 
ATOM     37  C   UNL     1      16.845  -4.847  13.728  1.00  0.00    -0.023 A 
ATOM     38  C   UNL     1      21.083  -3.143  17.120  1.00  0.00     0.044 C 
ATOM     39  C   UNL     1      19.827  -4.878  15.796  1.00  0.00     0.051 A 
ATOM     40  O   UNL     1      18.742  -6.537  14.609  1.00  0.00    -0.422 OA
ATOM     41  C   UNL     1      16.798  -6.166  13.352  1.00  0.00     0.042 A 
ATOM     42  C   UNL     1      15.722  -4.105  13.090  1.00  0.00     0.037 C 
ATOM     43  C   UNL     1      17.802  -6.999  13.834  1.00  0.00     0.339 A 
ATOM     44  C   UNL     1      15.615  -6.371  12.496  1.00  0.00     0.044 C 
ATOM     45  C   UNL     1      15.313  -5.013  11.945  1.00  0.00     0.010 C 
ATOM     46  O   UNL     1      17.739  -8.208  13.475  1.00  0.00    -0.246 OA
ENDBRANCH  31  32
ENDBRANCH  30  31
ENDBRANCH  27  30
ENDBRANCH  25  26
ENDBRANCH  24  25
ENDBRANCH   3  24
TORSDOF 11
ENDMDL
