MODEL 1
REMARK VINA RESULT:   -12.993      0.000      0.000
REMARK INTER + INTRA:         -16.772
REMARK INTER:                 -16.032
REMARK INTRA:                  -0.741
REMARK UNBOUND:                -0.741
REMARK SMILES O=C(c1cc(Cc2n[nH]c(=O)c3ccccc23)ccc1F)N1CCN(C(=O)C2CC2)CC1
REMARK SMILES IDX 5 1 18 2 19 3 20 4 3 5 4 6 21 7 6 8 7 9 15 10 14 11 16 12
REMARK SMILES IDX 13 13 17 14 12 15 10 16 8 17 9 18 11 19 2 21 1 22 22 23
REMARK SMILES IDX 23 24 32 25 24 26 31 27 25 28 26 29 27 30 28 31 29 32 30 33
REMARK H PARENT 9 20
REMARK Flexibility Score: inf
ROOT
ATOM      1  C   UNL     1      20.984   0.497  17.454  1.00  0.00    -0.041 A 
ATOM      2  C   UNL     1      22.308   0.211  17.216  1.00  0.00     0.007 A 
ATOM      3  C   UNL     1      22.690  -1.113  17.114  1.00  0.00     0.040 A 
ATOM      4  C   UNL     1      21.805  -2.161  17.241  1.00  0.00     0.135 A 
ATOM      5  C   UNL     1      20.476  -1.886  17.481  1.00  0.00     0.076 A 
ATOM      6  C   UNL     1      20.092  -0.543  17.583  1.00  0.00     0.021 A 
ATOM      7  F   UNL     1      22.206  -3.459  17.135  1.00  0.00    -0.206 F 
ENDROOT
BRANCH   1   8
ATOM      8  C   UNL     1      20.504   1.870  17.565  1.00  0.00     0.094 C 
BRANCH   8   9
ATOM      9  C   UNL     1      19.430   2.091  18.553  1.00  0.00     0.073 A 
ATOM     10  C   UNL     1      21.423   2.789  21.588  1.00  0.00     0.001 A 
ATOM     11  C   UNL     1      20.431   2.995  22.508  1.00  0.00     0.001 A 
ATOM     12  C   UNL     1      21.079   2.495  20.299  1.00  0.00     0.011 A 
ATOM     13  C   UNL     1      19.106   2.898  22.106  1.00  0.00     0.014 A 
ATOM     14  C   UNL     1      19.787   2.386  19.845  1.00  0.00     0.011 A 
ATOM     15  C   UNL     1      18.789   2.601  20.801  1.00  0.00     0.050 A 
ATOM     16  C   UNL     1      17.485   2.504  20.395  1.00  0.00     0.272 A 
ATOM     17  N   UNL     1      18.127   2.018  18.253  1.00  0.00    -0.177 NA
ATOM     18  N   UNL     1      17.161   2.209  19.106  1.00  0.00    -0.243 N 
ATOM     19  O   UNL     1      16.585   2.699  21.266  1.00  0.00    -0.267 OA
ATOM     20  H   UNL     1      16.144   2.153  18.881  1.00  0.00     0.194 HD
ENDBRANCH   8   9
ENDBRANCH   1   8
BRANCH   5  21
ATOM     21  C   UNL     1      19.481  -2.945  17.622  1.00  0.00     0.256 C 
ATOM     22  O   UNL     1      19.195  -3.325  18.788  1.00  0.00    -0.269 OA
ATOM     23  N   UNL     1      18.888  -3.496  16.471  1.00  0.00    -0.335 N 
ATOM     24  C   UNL     1      19.260  -3.010  15.162  1.00  0.00     0.141 C 
ATOM     25  C   UNL     1      17.907  -4.538  16.545  1.00  0.00     0.141 C 
ATOM     26  C   UNL     1      17.943  -2.699  14.458  1.00  0.00     0.141 C 
ATOM     27  C   UNL     1      17.518  -5.033  15.133  1.00  0.00     0.141 C 
ATOM     28  N   UNL     1      17.154  -3.947  14.273  1.00  0.00    -0.339 N 
ATOM     29  C   UNL     1      16.162  -3.951  13.295  1.00  0.00     0.225 C 
ATOM     30  O   UNL     1      16.069  -2.811  12.650  1.00  0.00    -0.275 OA
BRANCH  29  31
ATOM     31  C   UNL     1      15.226  -4.975  12.866  1.00  0.00     0.079 C 
ATOM     32  C   UNL     1      15.426  -6.423  12.911  1.00  0.00     0.014 C 
ATOM     33  C   UNL     1      15.415  -5.720  11.578  1.00  0.00     0.014 C 
ENDBRANCH  29  31
ENDBRANCH   5  21
TORSDOF 4
ENDMDL
MODEL 2
REMARK VINA RESULT:   -12.453      1.654      1.786
REMARK INTER + INTRA:         -16.106
REMARK INTER:                 -15.757
REMARK INTRA:                  -0.349
REMARK UNBOUND:                -0.741
REMARK SMILES O=C(c1cc(Cc2n[nH]c(=O)c3ccccc23)ccc1F)N1CCN(C(=O)C2CC2)CC1
REMARK SMILES IDX 5 1 18 2 19 3 20 4 3 5 4 6 21 7 6 8 7 9 15 10 14 11 16 12
REMARK SMILES IDX 13 13 17 14 12 15 10 16 8 17 9 18 11 19 2 21 1 22 22 23
REMARK SMILES IDX 23 24 32 25 24 26 31 27 25 28 26 29 27 30 28 31 29 32 30 33
REMARK H PARENT 9 20
REMARK Flexibility Score: inf
ROOT
ATOM      1  C   UNL     1      21.947   0.806  17.149  1.00  0.00    -0.041 A 
ATOM      2  C   UNL     1      22.678   1.106  16.023  1.00  0.00     0.007 A 
ATOM      3  C   UNL     1      22.795   0.146  15.036  1.00  0.00     0.040 A 
ATOM      4  C   UNL     1      22.212  -1.099  15.128  1.00  0.00     0.135 A 
ATOM      5  C   UNL     1      21.478  -1.410  16.252  1.00  0.00     0.076 A 
ATOM      6  C   UNL     1      21.361  -0.434  17.251  1.00  0.00     0.021 A 
ATOM      7  F   UNL     1      22.340  -2.030  14.141  1.00  0.00    -0.206 F 
ENDROOT
BRANCH   1   8
ATOM      8  C   UNL     1      21.772   1.772  18.229  1.00  0.00     0.094 C 
BRANCH   8   9
ATOM      9  C   UNL     1      20.386   1.952  18.702  1.00  0.00     0.073 A 
ATOM     10  C   UNL     1      20.987   3.226  22.120  1.00  0.00     0.001 A 
ATOM     11  C   UNL     1      19.703   3.396  22.563  1.00  0.00     0.001 A 
ATOM     12  C   UNL     1      21.193   2.753  20.855  1.00  0.00     0.011 A 
ATOM     13  C   UNL     1      18.650   3.082  21.716  1.00  0.00     0.014 A 
ATOM     14  C   UNL     1      20.190   2.427  19.974  1.00  0.00     0.011 A 
ATOM     15  C   UNL     1      18.886   2.609  20.447  1.00  0.00     0.050 A 
ATOM     16  C   UNL     1      17.854   2.298  19.603  1.00  0.00     0.272 A 
ATOM     17  N   UNL     1      19.311   1.676  17.952  1.00  0.00    -0.177 NA
ATOM     18  N   UNL     1      18.078   1.827  18.346  1.00  0.00    -0.243 N 
ATOM     19  O   UNL     1      16.674   2.464  20.037  1.00  0.00    -0.267 OA
ATOM     20  H   UNL     1      17.236   1.613  17.769  1.00  0.00     0.194 HD
ENDBRANCH   8   9
ENDBRANCH   1   8
BRANCH   5  21
ATOM     21  C   UNL     1      20.829  -2.707  16.416  1.00  0.00     0.256 C 
ATOM     22  O   UNL     1      21.433  -3.581  17.093  1.00  0.00    -0.269 OA
ATOM     23  N   UNL     1      19.573  -2.933  15.823  1.00  0.00    -0.335 N 
ATOM     24  C   UNL     1      18.933  -1.884  15.063  1.00  0.00     0.141 C 
ATOM     25  C   UNL     1      18.886  -4.186  15.948  1.00  0.00     0.141 C 
ATOM     26  C   UNL     1      17.518  -1.784  15.625  1.00  0.00     0.141 C 
ATOM     27  C   UNL     1      17.593  -4.193  15.101  1.00  0.00     0.141 C 
ATOM     28  N   UNL     1      16.775  -3.049  15.371  1.00  0.00    -0.339 N 
ATOM     29  C   UNL     1      15.384  -3.005  15.408  1.00  0.00     0.225 C 
ATOM     30  O   UNL     1      14.912  -1.807  15.664  1.00  0.00    -0.275 OA
BRANCH  29  31
ATOM     31  C   UNL     1      14.374  -4.031  15.215  1.00  0.00     0.079 C 
ATOM     32  C   UNL     1      14.549  -5.476  15.371  1.00  0.00     0.014 C 
ATOM     33  C   UNL     1      14.362  -4.899  13.992  1.00  0.00     0.014 C 
ENDBRANCH  29  31
ENDBRANCH   5  21
TORSDOF 4
ENDMDL
MODEL 3
REMARK VINA RESULT:   -12.367      1.662      2.177
REMARK INTER + INTRA:         -16.000
REMARK INTER:                 -15.340
REMARK INTRA:                  -0.661
REMARK UNBOUND:                -0.741
REMARK SMILES O=C(c1cc(Cc2n[nH]c(=O)c3ccccc23)ccc1F)N1CCN(C(=O)C2CC2)CC1
REMARK SMILES IDX 5 1 18 2 19 3 20 4 3 5 4 6 21 7 6 8 7 9 15 10 14 11 16 12
REMARK SMILES IDX 13 13 17 14 12 15 10 16 8 17 9 18 11 19 2 21 1 22 22 23
REMARK SMILES IDX 23 24 32 25 24 26 31 27 25 28 26 29 27 30 28 31 29 32 30 33
REMARK H PARENT 9 20
REMARK Flexibility Score: inf
ROOT
ATOM      1  C   UNL     1      21.570   0.518  17.703  1.00  0.00    -0.041 A 
ATOM      2  C   UNL     1      22.828   0.064  17.382  1.00  0.00     0.007 A 
ATOM      3  C   UNL     1      23.005  -1.288  17.158  1.00  0.00     0.040 A 
ATOM      4  C   UNL     1      21.979  -2.203  17.242  1.00  0.00     0.135 A 
ATOM      5  C   UNL     1      20.714  -1.759  17.565  1.00  0.00     0.076 A 
ATOM      6  C   UNL     1      20.538  -0.387  17.791  1.00  0.00     0.021 A 
ATOM      7  F   UNL     1      22.177  -3.532  17.016  1.00  0.00    -0.206 F 
ENDROOT
BRANCH   1   8
ATOM      8  C   UNL     1      21.304   1.933  17.945  1.00  0.00     0.094 C 
BRANCH   8   9
ATOM      9  C   UNL     1      21.143   2.317  19.360  1.00  0.00     0.073 A 
ATOM     10  C   UNL     1      17.459   2.292  19.663  1.00  0.00     0.001 A 
ATOM     11  C   UNL     1      17.304   2.647  20.976  1.00  0.00     0.001 A 
ATOM     12  C   UNL     1      18.720   2.188  19.151  1.00  0.00     0.011 A 
ATOM     13  C   UNL     1      18.432   2.892  21.746  1.00  0.00     0.014 A 
ATOM     14  C   UNL     1      19.871   2.419  19.865  1.00  0.00     0.011 A 
ATOM     15  C   UNL     1      19.691   2.780  21.204  1.00  0.00     0.050 A 
ATOM     16  C   UNL     1      20.809   3.018  21.956  1.00  0.00     0.272 A 
ATOM     17  N   UNL     1      22.175   2.571  20.175  1.00  0.00    -0.177 NA
ATOM     18  N   UNL     1      22.059   2.911  21.428  1.00  0.00    -0.243 N 
ATOM     19  O   UNL     1      20.639   3.346  23.169  1.00  0.00    -0.267 OA
ATOM     20  H   UNL     1      22.857   3.111  22.069  1.00  0.00     0.194 HD
ENDBRANCH   8   9
ENDBRANCH   1   8
BRANCH   5  21
ATOM     21  C   UNL     1      19.578  -2.670  17.668  1.00  0.00     0.256 C 
ATOM     22  O   UNL     1      19.322  -3.156  18.802  1.00  0.00    -0.269 OA
ATOM     23  N   UNL     1      18.824  -2.968  16.519  1.00  0.00    -0.335 N 
ATOM     24  C   UNL     1      19.171  -2.371  15.250  1.00  0.00     0.141 C 
ATOM     25  C   UNL     1      17.698  -3.856  16.557  1.00  0.00     0.141 C 
ATOM     26  C   UNL     1      17.871  -1.779  14.713  1.00  0.00     0.141 C 
ATOM     27  C   UNL     1      17.135  -4.095  15.138  1.00  0.00     0.141 C 
ATOM     28  N   UNL     1      16.884  -2.862  14.452  1.00  0.00    -0.339 N 
ATOM     29  C   UNL     1      15.836  -2.589  13.577  1.00  0.00     0.225 C 
ATOM     30  O   UNL     1      15.876  -1.372  13.086  1.00  0.00    -0.275 OA
BRANCH  29  31
ATOM     31  C   UNL     1      14.721  -3.398  13.116  1.00  0.00     0.079 C 
ATOM     32  C   UNL     1      14.011  -4.430  13.872  1.00  0.00     0.014 C 
ATOM     33  C   UNL     1      14.903  -4.835  12.727  1.00  0.00     0.014 C 
ENDBRANCH  29  31
ENDBRANCH   5  21
TORSDOF 4
ENDMDL
MODEL 4
REMARK VINA RESULT:   -11.949      2.966      5.299
REMARK INTER + INTRA:         -15.484
REMARK INTER:                 -14.857
REMARK INTRA:                  -0.627
REMARK UNBOUND:                -0.741
REMARK SMILES O=C(c1cc(Cc2n[nH]c(=O)c3ccccc23)ccc1F)N1CCN(C(=O)C2CC2)CC1
REMARK SMILES IDX 5 1 18 2 19 3 20 4 3 5 4 6 21 7 6 8 7 9 15 10 14 11 16 12
REMARK SMILES IDX 13 13 17 14 12 15 10 16 8 17 9 18 11 19 2 21 1 22 22 23
REMARK SMILES IDX 23 24 32 25 24 26 31 27 25 28 26 29 27 30 28 31 29 32 30 33
REMARK H PARENT 9 20
REMARK Flexibility Score: inf
ROOT
ATOM      1  C   UNL     1      18.795  -3.711  16.851  1.00  0.00    -0.041 A 
ATOM      2  C   UNL     1      18.149  -4.226  17.949  1.00  0.00     0.007 A 
ATOM      3  C   UNL     1      16.877  -4.742  17.787  1.00  0.00     0.040 A 
ATOM      4  C   UNL     1      16.226  -4.763  16.573  1.00  0.00     0.135 A 
ATOM      5  C   UNL     1      16.864  -4.248  15.464  1.00  0.00     0.076 A 
ATOM      6  C   UNL     1      18.154  -3.726  15.633  1.00  0.00     0.021 A 
ATOM      7  F   UNL     1      14.971  -5.277  16.436  1.00  0.00    -0.206 F 
ENDROOT
BRANCH   1   8
ATOM      8  C   UNL     1      20.142  -3.158  16.943  1.00  0.00     0.094 C 
BRANCH   8   9
ATOM      9  C   UNL     1      20.224  -1.749  17.372  1.00  0.00     0.073 A 
ATOM     10  C   UNL     1      23.849  -1.126  17.003  1.00  0.00     0.001 A 
ATOM     11  C   UNL     1      23.929   0.182  17.399  1.00  0.00     0.001 A 
ATOM     12  C   UNL     1      22.630  -1.742  16.999  1.00  0.00     0.011 A 
ATOM     13  C   UNL     1      22.772   0.842  17.786  1.00  0.00     0.014 A 
ATOM     14  C   UNL     1      21.453  -1.139  17.372  1.00  0.00     0.011 A 
ATOM     15  C   UNL     1      21.558   0.197  17.772  1.00  0.00     0.050 A 
ATOM     16  C   UNL     1      20.410   0.840  18.151  1.00  0.00     0.272 A 
ATOM     17  N   UNL     1      19.159  -1.036  17.760  1.00  0.00    -0.177 NA
ATOM     18  N   UNL     1      19.204   0.210  18.142  1.00  0.00    -0.243 N 
ATOM     19  O   UNL     1      20.511   2.050  18.514  1.00  0.00    -0.267 OA
ATOM     20  H   UNL     1      18.380   0.772  18.447  1.00  0.00     0.194 HD
ENDBRANCH   8   9
ENDBRANCH   1   8
BRANCH   5  21
ATOM     21  C   UNL     1      16.238  -4.240  14.146  1.00  0.00     0.256 C 
ATOM     22  O   UNL     1      15.715  -3.163  13.755  1.00  0.00    -0.269 OA
ATOM     23  N   UNL     1      16.240  -5.415  13.372  1.00  0.00    -0.335 N 
ATOM     24  C   UNL     1      16.864  -6.616  13.881  1.00  0.00     0.141 C 
ATOM     25  C   UNL     1      15.641  -5.470  12.071  1.00  0.00     0.141 C 
ATOM     26  C   UNL     1      17.793  -7.090  12.768  1.00  0.00     0.141 C 
ATOM     27  C   UNL     1      15.683  -6.908  11.504  1.00  0.00     0.141 C 
ATOM     28  N   UNL     1      17.003  -7.462  11.563  1.00  0.00    -0.339 N 
ATOM     29  C   UNL     1      17.599  -8.306  10.629  1.00  0.00     0.225 C 
ATOM     30  O   UNL     1      18.816  -8.668  10.964  1.00  0.00    -0.275 OA
BRANCH  29  31
ATOM     31  C   UNL     1      17.123  -8.850   9.369  1.00  0.00     0.079 C 
ATOM     32  C   UNL     1      16.275 -10.028   9.185  1.00  0.00     0.014 C 
ATOM     33  C   UNL     1      17.724 -10.088   8.773  1.00  0.00     0.014 C 
ENDBRANCH  29  31
ENDBRANCH   5  21
TORSDOF 4
ENDMDL
MODEL 5
REMARK VINA RESULT:   -11.368      1.977      2.540
REMARK INTER + INTRA:         -14.767
REMARK INTER:                 -14.962
REMARK INTRA:                   0.195
REMARK UNBOUND:                -0.741
REMARK SMILES O=C(c1cc(Cc2n[nH]c(=O)c3ccccc23)ccc1F)N1CCN(C(=O)C2CC2)CC1
REMARK SMILES IDX 5 1 18 2 19 3 20 4 3 5 4 6 21 7 6 8 7 9 15 10 14 11 16 12
REMARK SMILES IDX 13 13 17 14 12 15 10 16 8 17 9 18 11 19 2 21 1 22 22 23
REMARK SMILES IDX 23 24 32 25 24 26 31 27 25 28 26 29 27 30 28 31 29 32 30 33
REMARK H PARENT 9 20
REMARK Flexibility Score: inf
ROOT
ATOM      1  C   UNL     1      22.122   0.899  17.282  1.00  0.00    -0.041 A 
ATOM      2  C   UNL     1      23.295   0.186  17.192  1.00  0.00     0.007 A 
ATOM      3  C   UNL     1      23.421  -0.754  16.187  1.00  0.00     0.040 A 
ATOM      4  C   UNL     1      22.426  -1.010  15.270  1.00  0.00     0.135 A 
ATOM      5  C   UNL     1      21.246  -0.302  15.351  1.00  0.00     0.076 A 
ATOM      6  C   UNL     1      21.121   0.650  16.371  1.00  0.00     0.021 A 
ATOM      7  F   UNL     1      22.574  -1.942  14.286  1.00  0.00    -0.206 F 
ENDROOT
BRANCH   1   8
ATOM      8  C   UNL     1      21.919   1.914  18.310  1.00  0.00     0.094 C 
BRANCH   8   9
ATOM      9  C   UNL     1      20.537   2.042  18.812  1.00  0.00     0.073 A 
ATOM     10  C   UNL     1      21.165   3.252  22.249  1.00  0.00     0.001 A 
ATOM     11  C   UNL     1      19.885   3.374  22.719  1.00  0.00     0.001 A 
ATOM     12  C   UNL     1      21.361   2.816  20.969  1.00  0.00     0.011 A 
ATOM     13  C   UNL     1      18.825   3.050  21.883  1.00  0.00     0.014 A 
ATOM     14  C   UNL     1      20.352   2.481  20.099  1.00  0.00     0.011 A 
ATOM     15  C   UNL     1      19.052   2.613  20.599  1.00  0.00     0.050 A 
ATOM     16  C   UNL     1      18.013   2.293  19.767  1.00  0.00     0.272 A 
ATOM     17  N   UNL     1      19.457   1.753  18.076  1.00  0.00    -0.177 NA
ATOM     18  N   UNL     1      18.228   1.859  18.495  1.00  0.00    -0.243 N 
ATOM     19  O   UNL     1      16.838   2.414  20.226  1.00  0.00    -0.267 OA
ATOM     20  H   UNL     1      17.381   1.634  17.929  1.00  0.00     0.194 HD
ENDBRANCH   8   9
ENDBRANCH   1   8
BRANCH   5  21
ATOM     21  C   UNL     1      20.150  -0.517  14.412  1.00  0.00     0.256 C 
ATOM     22  O   UNL     1      20.356  -0.237  13.201  1.00  0.00    -0.269 OA
ATOM     23  N   UNL     1      18.924  -1.021  14.882  1.00  0.00    -0.335 N 
ATOM     24  C   UNL     1      18.757  -1.325  16.285  1.00  0.00     0.141 C 
ATOM     25  C   UNL     1      17.810  -1.252  14.009  1.00  0.00     0.141 C 
ATOM     26  C   UNL     1      18.196  -2.744  16.326  1.00  0.00     0.141 C 
ATOM     27  C   UNL     1      16.562  -1.689  14.809  1.00  0.00     0.141 C 
ATOM     28  N   UNL     1      16.852  -2.783  15.688  1.00  0.00    -0.339 N 
ATOM     29  C   UNL     1      16.012  -3.847  16.006  1.00  0.00     0.225 C 
ATOM     30  O   UNL     1      16.547  -4.690  16.858  1.00  0.00    -0.275 OA
BRANCH  29  31
ATOM     31  C   UNL     1      14.669  -4.187  15.569  1.00  0.00     0.079 C 
ATOM     32  C   UNL     1      14.106  -5.530  15.423  1.00  0.00     0.014 C 
ATOM     33  C   UNL     1      14.403  -4.715  14.190  1.00  0.00     0.014 C 
ENDBRANCH  29  31
ENDBRANCH   5  21
TORSDOF 4
ENDMDL
MODEL 6
REMARK VINA RESULT:   -11.349      3.758     11.364
REMARK INTER + INTRA:         -14.744
REMARK INTER:                 -13.923
REMARK INTRA:                  -0.821
REMARK UNBOUND:                -0.741
REMARK SMILES O=C(c1cc(Cc2n[nH]c(=O)c3ccccc23)ccc1F)N1CCN(C(=O)C2CC2)CC1
REMARK SMILES IDX 5 1 18 2 19 3 20 4 3 5 4 6 21 7 6 8 7 9 15 10 14 11 16 12
REMARK SMILES IDX 13 13 17 14 12 15 10 16 8 17 9 18 11 19 2 21 1 22 22 23
REMARK SMILES IDX 23 24 32 25 24 26 31 27 25 28 26 29 27 30 28 31 29 32 30 33
REMARK H PARENT 9 20
REMARK Flexibility Score: inf
ROOT
ATOM      1  C   UNL     1      16.378  -6.251  12.918  1.00  0.00    -0.041 A 
ATOM      2  C   UNL     1      15.758  -6.971  13.911  1.00  0.00     0.007 A 
ATOM      3  C   UNL     1      15.075  -6.285  14.898  1.00  0.00     0.040 A 
ATOM      4  C   UNL     1      14.986  -4.911  14.932  1.00  0.00     0.135 A 
ATOM      5  C   UNL     1      15.605  -4.178  13.941  1.00  0.00     0.076 A 
ATOM      6  C   UNL     1      16.297  -4.877  12.942  1.00  0.00     0.021 A 
ATOM      7  F   UNL     1      14.306  -4.256  15.914  1.00  0.00    -0.206 F 
ENDROOT
BRANCH   1   8
ATOM      8  C   UNL     1      17.110  -6.905  11.838  1.00  0.00     0.094 C 
BRANCH   8   9
ATOM      9  C   UNL     1      16.283  -7.651  10.871  1.00  0.00     0.073 A 
ATOM     10  C   UNL     1      17.994 -10.928  10.888  1.00  0.00     0.001 A 
ATOM     11  C   UNL     1      17.230 -11.625   9.992  1.00  0.00     0.001 A 
ATOM     12  C   UNL     1      17.671  -9.631  11.165  1.00  0.00     0.011 A 
ATOM     13  C   UNL     1      16.151 -10.993   9.390  1.00  0.00     0.014 A 
ATOM     14  C   UNL     1      16.616  -8.955  10.600  1.00  0.00     0.011 A 
ATOM     15  C   UNL     1      15.848  -9.686   9.688  1.00  0.00     0.050 A 
ATOM     16  C   UNL     1      14.785  -9.054   9.101  1.00  0.00     0.272 A 
ATOM     17  N   UNL     1      15.224  -7.122  10.245  1.00  0.00    -0.177 NA
ATOM     18  N   UNL     1      14.478  -7.760   9.388  1.00  0.00    -0.243 N 
ATOM     19  O   UNL     1      14.093  -9.721   8.274  1.00  0.00    -0.267 OA
ATOM     20  H   UNL     1      13.653  -7.354   8.895  1.00  0.00     0.194 HD
ENDBRANCH   8   9
ENDBRANCH   1   8
BRANCH   5  21
ATOM     21  C   UNL     1      15.551  -2.720  13.910  1.00  0.00     0.256 C 
ATOM     22  O   UNL     1      14.536  -2.185  13.390  1.00  0.00    -0.269 OA
ATOM     23  N   UNL     1      16.614  -1.976  14.453  1.00  0.00    -0.335 N 
ATOM     24  C   UNL     1      17.747  -2.654  15.039  1.00  0.00     0.141 C 
ATOM     25  C   UNL     1      16.618  -0.542  14.451  1.00  0.00     0.141 C 
ATOM     26  C   UNL     1      17.935  -2.015  16.411  1.00  0.00     0.141 C 
ATOM     27  C   UNL     1      17.956   0.007  14.998  1.00  0.00     0.141 C 
ATOM     28  N   UNL     1      18.292  -0.577  16.262  1.00  0.00    -0.339 N 
ATOM     29  C   UNL     1      18.917   0.053  17.335  1.00  0.00     0.225 C 
ATOM     30  O   UNL     1      19.112  -0.745  18.360  1.00  0.00    -0.275 OA
BRANCH  29  31
ATOM     31  C   UNL     1      19.384   1.415  17.523  1.00  0.00     0.079 C 
ATOM     32  C   UNL     1      20.621   1.837  18.183  1.00  0.00     0.014 C 
ATOM     33  C   UNL     1      19.298   2.097  18.857  1.00  0.00     0.014 C 
ENDBRANCH  29  31
ENDBRANCH   5  21
TORSDOF 4
ENDMDL
MODEL 7
REMARK VINA RESULT:   -11.285      3.667      5.809
REMARK INTER + INTRA:         -14.664
REMARK INTER:                 -13.763
REMARK INTRA:                  -0.901
REMARK UNBOUND:                -0.741
REMARK SMILES O=C(c1cc(Cc2n[nH]c(=O)c3ccccc23)ccc1F)N1CCN(C(=O)C2CC2)CC1
REMARK SMILES IDX 5 1 18 2 19 3 20 4 3 5 4 6 21 7 6 8 7 9 15 10 14 11 16 12
REMARK SMILES IDX 13 13 17 14 12 15 10 16 8 17 9 18 11 19 2 21 1 22 22 23
REMARK SMILES IDX 23 24 32 25 24 26 31 27 25 28 26 29 27 30 28 31 29 32 30 33
REMARK H PARENT 9 20
REMARK Flexibility Score: inf
ROOT
ATOM      1  C   UNL     1      18.613  -3.976  16.942  1.00  0.00    -0.041 A 
ATOM      2  C   UNL     1      17.921  -4.468  18.024  1.00  0.00     0.007 A 
ATOM      3  C   UNL     1      16.627  -4.915  17.832  1.00  0.00     0.040 A 
ATOM      4  C   UNL     1      15.998  -4.891  16.607  1.00  0.00     0.135 A 
ATOM      5  C   UNL     1      16.683  -4.399  15.516  1.00  0.00     0.076 A 
ATOM      6  C   UNL     1      17.994  -3.946  15.714  1.00  0.00     0.021 A 
ATOM      7  F   UNL     1      14.722  -5.339  16.442  1.00  0.00    -0.206 F 
ENDROOT
BRANCH   1   8
ATOM      8  C   UNL     1      19.985  -3.494  17.065  1.00  0.00     0.094 C 
BRANCH   8   9
ATOM      9  C   UNL     1      20.354  -2.390  16.159  1.00  0.00     0.073 A 
ATOM     10  C   UNL     1      19.429   0.532  18.225  1.00  0.00     0.001 A 
ATOM     11  C   UNL     1      19.772   1.561  17.388  1.00  0.00     0.001 A 
ATOM     12  C   UNL     1      19.627  -0.753  17.808  1.00  0.00     0.011 A 
ATOM     13  C   UNL     1      20.307   1.267  16.142  1.00  0.00     0.014 A 
ATOM     14  C   UNL     1      20.152  -1.102  16.587  1.00  0.00     0.011 A 
ATOM     15  C   UNL     1      20.495  -0.037  15.749  1.00  0.00     0.050 A 
ATOM     16  C   UNL     1      21.024  -0.336  14.522  1.00  0.00     0.272 A 
ATOM     17  N   UNL     1      20.877  -2.581  14.941  1.00  0.00    -0.177 NA
ATOM     18  N   UNL     1      21.212  -1.624  14.123  1.00  0.00    -0.243 N 
ATOM     19  O   UNL     1      21.332   0.633  13.766  1.00  0.00    -0.267 OA
ATOM     20  H   UNL     1      21.618  -1.764  13.172  1.00  0.00     0.194 HD
ENDBRANCH   8   9
ENDBRANCH   1   8
BRANCH   5  21
ATOM     21  C   UNL     1      16.082  -4.346  14.187  1.00  0.00     0.256 C 
ATOM     22  O   UNL     1      15.556  -3.260  13.828  1.00  0.00    -0.269 OA
ATOM     23  N   UNL     1      16.112  -5.490  13.368  1.00  0.00    -0.335 N 
ATOM     24  C   UNL     1      16.737  -6.703  13.842  1.00  0.00     0.141 C 
ATOM     25  C   UNL     1      15.538  -5.500  12.054  1.00  0.00     0.141 C 
ATOM     26  C   UNL     1      17.693  -7.125  12.731  1.00  0.00     0.141 C 
ATOM     27  C   UNL     1      15.606  -6.914  11.433  1.00  0.00     0.141 C 
ATOM     28  N   UNL     1      16.929  -7.458  11.496  1.00  0.00    -0.339 N 
ATOM     29  C   UNL     1      17.552  -8.259  10.543  1.00  0.00     0.225 C 
ATOM     30  O   UNL     1      18.766  -8.623  10.887  1.00  0.00    -0.275 OA
BRANCH  29  31
ATOM     31  C   UNL     1      17.106  -8.758   9.254  1.00  0.00     0.079 C 
ATOM     32  C   UNL     1      16.157  -9.845   9.012  1.00  0.00     0.014 C 
ATOM     33  C   UNL     1      17.616 -10.054   8.695  1.00  0.00     0.014 C 
ENDBRANCH  29  31
ENDBRANCH   5  21
TORSDOF 4
ENDMDL
MODEL 8
REMARK VINA RESULT:   -11.146      2.419      3.160
REMARK INTER + INTRA:         -14.493
REMARK INTER:                 -14.338
REMARK INTRA:                  -0.155
REMARK UNBOUND:                -0.741
REMARK SMILES O=C(c1cc(Cc2n[nH]c(=O)c3ccccc23)ccc1F)N1CCN(C(=O)C2CC2)CC1
REMARK SMILES IDX 5 1 18 2 19 3 20 4 3 5 4 6 21 7 6 8 7 9 15 10 14 11 16 12
REMARK SMILES IDX 13 13 17 14 12 15 10 16 8 17 9 18 11 19 2 21 1 22 22 23
REMARK SMILES IDX 23 24 32 25 24 26 31 27 25 28 26 29 27 30 28 31 29 32 30 33
REMARK H PARENT 9 20
REMARK Flexibility Score: inf
ROOT
ATOM      1  C   UNL     1      22.418   0.970  17.317  1.00  0.00    -0.041 A 
ATOM      2  C   UNL     1      23.215  -0.096  17.663  1.00  0.00     0.007 A 
ATOM      3  C   UNL     1      22.983  -1.318  17.061  1.00  0.00     0.040 A 
ATOM      4  C   UNL     1      21.989  -1.518  16.128  1.00  0.00     0.135 A 
ATOM      5  C   UNL     1      21.184  -0.456  15.774  1.00  0.00     0.076 A 
ATOM      6  C   UNL     1      21.422   0.781  16.387  1.00  0.00     0.021 A 
ATOM      7  F   UNL     1      21.780  -2.732  15.546  1.00  0.00    -0.206 F 
ENDROOT
BRANCH   1   8
ATOM      8  C   UNL     1      22.608   2.292  17.904  1.00  0.00     0.094 C 
BRANCH   8   9
ATOM      9  C   UNL     1      22.017   2.486  19.241  1.00  0.00     0.073 A 
ATOM     10  C   UNL     1      18.439   1.927  18.497  1.00  0.00     0.001 A 
ATOM     11  C   UNL     1      17.885   2.104  19.736  1.00  0.00     0.001 A 
ATOM     12  C   UNL     1      19.791   2.054  18.352  1.00  0.00     0.011 A 
ATOM     13  C   UNL     1      18.713   2.410  20.807  1.00  0.00     0.014 A 
ATOM     14  C   UNL     1      20.657   2.355  19.375  1.00  0.00     0.011 A 
ATOM     15  C   UNL     1      20.071   2.532  20.633  1.00  0.00     0.050 A 
ATOM     16  C   UNL     1      20.895   2.832  21.684  1.00  0.00     0.272 A 
ATOM     17  N   UNL     1      22.739   2.782  20.329  1.00  0.00    -0.177 NA
ATOM     18  N   UNL     1      22.241   2.956  21.521  1.00  0.00    -0.243 N 
ATOM     19  O   UNL     1      20.358   2.991  22.821  1.00  0.00    -0.267 OA
ATOM     20  H   UNL     1      22.796   3.188  22.373  1.00  0.00     0.194 HD
ENDBRANCH   8   9
ENDBRANCH   1   8
BRANCH   5  21
ATOM     21  C   UNL     1      20.114  -0.593  14.791  1.00  0.00     0.256 C 
ATOM     22  O   UNL     1      20.363  -0.245  13.606  1.00  0.00    -0.269 OA
ATOM     23  N   UNL     1      18.865  -1.099  15.193  1.00  0.00    -0.335 N 
ATOM     24  C   UNL     1      18.648  -1.484  16.569  1.00  0.00     0.141 C 
ATOM     25  C   UNL     1      17.775  -1.256  14.273  1.00  0.00     0.141 C 
ATOM     26  C   UNL     1      18.062  -2.891  16.507  1.00  0.00     0.141 C 
ATOM     27  C   UNL     1      16.495  -1.716  15.007  1.00  0.00     0.141 C 
ATOM     28  N   UNL     1      16.737  -2.865  15.827  1.00  0.00    -0.339 N 
ATOM     29  C   UNL     1      15.869  -3.930  16.054  1.00  0.00     0.225 C 
ATOM     30  O   UNL     1      16.362  -4.833  16.870  1.00  0.00    -0.275 OA
BRANCH  29  31
ATOM     31  C   UNL     1      14.535  -4.217  15.558  1.00  0.00     0.079 C 
ATOM     32  C   UNL     1      13.936  -5.537  15.359  1.00  0.00     0.014 C 
ATOM     33  C   UNL     1      14.307  -4.706  14.158  1.00  0.00     0.014 C 
ENDBRANCH  29  31
ENDBRANCH   5  21
TORSDOF 4
ENDMDL
MODEL 9
REMARK VINA RESULT:   -10.890      3.942      7.098
REMARK INTER + INTRA:         -14.178
REMARK INTER:                 -13.909
REMARK INTRA:                  -0.268
REMARK UNBOUND:                -0.741
REMARK SMILES O=C(c1cc(Cc2n[nH]c(=O)c3ccccc23)ccc1F)N1CCN(C(=O)C2CC2)CC1
REMARK SMILES IDX 5 1 18 2 19 3 20 4 3 5 4 6 21 7 6 8 7 9 15 10 14 11 16 12
REMARK SMILES IDX 13 13 17 14 12 15 10 16 8 17 9 18 11 19 2 21 1 22 22 23
REMARK SMILES IDX 23 24 32 25 24 26 31 27 25 28 26 29 27 30 28 31 29 32 30 33
REMARK H PARENT 9 20
REMARK Flexibility Score: inf
ROOT
ATOM      1  C   UNL     1      19.142   0.441  17.340  1.00  0.00    -0.041 A 
ATOM      2  C   UNL     1      19.066  -0.748  18.026  1.00  0.00     0.007 A 
ATOM      3  C   UNL     1      19.967  -1.749  17.716  1.00  0.00     0.040 A 
ATOM      4  C   UNL     1      20.939  -1.611  16.750  1.00  0.00     0.135 A 
ATOM      5  C   UNL     1      21.024  -0.422  16.055  1.00  0.00     0.076 A 
ATOM      6  C   UNL     1      20.109   0.590  16.373  1.00  0.00     0.021 A 
ATOM      7  F   UNL     1      21.818  -2.611  16.462  1.00  0.00    -0.206 F 
ENDROOT
BRANCH   1   8
ATOM      8  C   UNL     1      18.231   1.546  17.619  1.00  0.00     0.094 C 
BRANCH   8   9
ATOM      9  C   UNL     1      18.188   1.996  19.023  1.00  0.00     0.073 A 
ATOM     10  C   UNL     1      21.785   2.526  19.687  1.00  0.00     0.001 A 
ATOM     11  C   UNL     1      21.750   2.945  20.990  1.00  0.00     0.001 A 
ATOM     12  C   UNL     1      20.612   2.220  19.059  1.00  0.00     0.011 A 
ATOM     13  C   UNL     1      20.525   3.045  21.633  1.00  0.00     0.014 A 
ATOM     14  C   UNL     1      19.372   2.301  19.645  1.00  0.00     0.011 A 
ATOM     15  C   UNL     1      19.359   2.731  20.976  1.00  0.00     0.050 A 
ATOM     16  C   UNL     1      18.145   2.828  21.602  1.00  0.00     0.272 A 
ATOM     17  N   UNL     1      17.051   2.122  19.720  1.00  0.00    -0.177 NA
ATOM     18  N   UNL     1      16.986   2.518  20.960  1.00  0.00    -0.243 N 
ATOM     19  O   UNL     1      18.140   3.217  22.808  1.00  0.00    -0.267 OA
ATOM     20  H   UNL     1      16.106   2.618  21.511  1.00  0.00     0.194 HD
ENDBRANCH   8   9
ENDBRANCH   1   8
BRANCH   5  21
ATOM     21  C   UNL     1      22.031  -0.202  15.022  1.00  0.00     0.256 C 
ATOM     22  O   UNL     1      21.856  -0.764  13.908  1.00  0.00    -0.269 OA
ATOM     23  N   UNL     1      23.142   0.614  15.301  1.00  0.00    -0.335 N 
ATOM     24  C   UNL     1      23.279   1.232  16.600  1.00  0.00     0.141 C 
ATOM     25  C   UNL     1      24.164   0.867  14.327  1.00  0.00     0.141 C 
ATOM     26  C   UNL     1      23.543   2.708  16.319  1.00  0.00     0.141 C 
ATOM     27  C   UNL     1      25.318   1.693  14.940  1.00  0.00     0.141 C 
ATOM     28  N   UNL     1      24.836   2.869  15.600  1.00  0.00    -0.339 N 
ATOM     29  C   UNL     1      25.452   4.118  15.642  1.00  0.00     0.225 C 
ATOM     30  O   UNL     1      24.780   5.002  16.342  1.00  0.00    -0.275 OA
BRANCH  29  31
ATOM     31  C   UNL     1      26.688   4.610  15.059  1.00  0.00     0.079 C 
ATOM     32  C   UNL     1      26.892   5.894  14.387  1.00  0.00     0.014 C 
ATOM     33  C   UNL     1      26.904   4.624  13.574  1.00  0.00     0.014 C 
ENDBRANCH  29  31
ENDBRANCH   5  21
TORSDOF 4
ENDMDL
MODEL 10
REMARK VINA RESULT:   -10.668      2.572      3.224
REMARK INTER + INTRA:         -13.904
REMARK INTER:                 -14.055
REMARK INTRA:                   0.152
REMARK UNBOUND:                -0.741
REMARK SMILES O=C(c1cc(Cc2n[nH]c(=O)c3ccccc23)ccc1F)N1CCN(C(=O)C2CC2)CC1
REMARK SMILES IDX 5 1 18 2 19 3 20 4 3 5 4 6 21 7 6 8 7 9 15 10 14 11 16 12
REMARK SMILES IDX 13 13 17 14 12 15 10 16 8 17 9 18 11 19 2 21 1 22 22 23
REMARK SMILES IDX 23 24 32 25 24 26 31 27 25 28 26 29 27 30 28 31 29 32 30 33
REMARK H PARENT 9 20
REMARK Flexibility Score: inf
ROOT
ATOM      1  C   UNL     1      18.981   0.580  17.089  1.00  0.00    -0.041 A 
ATOM      2  C   UNL     1      19.826   1.465  16.462  1.00  0.00     0.007 A 
ATOM      3  C   UNL     1      19.667   1.684  15.106  1.00  0.00     0.040 A 
ATOM      4  C   UNL     1      18.699   1.056  14.354  1.00  0.00     0.135 A 
ATOM      5  C   UNL     1      17.846   0.166  14.972  1.00  0.00     0.076 A 
ATOM      6  C   UNL     1      18.010  -0.053  16.346  1.00  0.00     0.021 A 
ATOM      7  F   UNL     1      18.560   1.289  13.019  1.00  0.00    -0.206 F 
ENDROOT
BRANCH   1   8
ATOM      8  C   UNL     1      19.081   0.305  18.518  1.00  0.00     0.094 C 
BRANCH   8   9
ATOM      9  C   UNL     1      18.855   1.461  19.406  1.00  0.00     0.073 A 
ATOM     10  C   UNL     1      22.331   2.582  19.976  1.00  0.00     0.001 A 
ATOM     11  C   UNL     1      22.125   3.656  20.800  1.00  0.00     0.001 A 
ATOM     12  C   UNL     1      21.251   1.875  19.529  1.00  0.00     0.011 A 
ATOM     13  C   UNL     1      20.828   3.994  21.157  1.00  0.00     0.014 A 
ATOM     14  C   UNL     1      19.947   2.164  19.850  1.00  0.00     0.011 A 
ATOM     15  C   UNL     1      19.759   3.265  20.691  1.00  0.00     0.050 A 
ATOM     16  C   UNL     1      18.475   3.592  21.037  1.00  0.00     0.272 A 
ATOM     17  N   UNL     1      17.638   1.858  19.800  1.00  0.00    -0.177 NA
ATOM     18  N   UNL     1      17.411   2.876  20.583  1.00  0.00    -0.243 N 
ATOM     19  O   UNL     1      18.312   4.590  21.801  1.00  0.00    -0.267 OA
ATOM     20  H   UNL     1      16.467   3.191  20.895  1.00  0.00     0.194 HD
ENDBRANCH   8   9
ENDBRANCH   1   8
BRANCH   5  21
ATOM     21  C   UNL     1      16.795  -0.532  14.239  1.00  0.00     0.256 C 
ATOM     22  O   UNL     1      16.104   0.140  13.428  1.00  0.00    -0.269 OA
ATOM     23  N   UNL     1      16.593  -1.907  14.461  1.00  0.00    -0.335 N 
ATOM     24  C   UNL     1      17.425  -2.618  15.404  1.00  0.00     0.141 C 
ATOM     25  C   UNL     1      15.576  -2.647  13.772  1.00  0.00     0.141 C 
ATOM     26  C   UNL     1      17.928  -3.846  14.652  1.00  0.00     0.141 C 
ATOM     27  C   UNL     1      15.500  -4.100  14.296  1.00  0.00     0.141 C 
ATOM     28  N   UNL     1      16.786  -4.732  14.294  1.00  0.00    -0.339 N 
ATOM     29  C   UNL     1      17.062  -6.066  14.008  1.00  0.00     0.225 C 
ATOM     30  O   UNL     1      18.338  -6.362  14.106  1.00  0.00    -0.275 OA
BRANCH  29  31
ATOM     31  C   UNL     1      16.205  -7.175  13.628  1.00  0.00     0.079 C 
ATOM     32  C   UNL     1      16.619  -8.433  13.005  1.00  0.00     0.014 C 
ATOM     33  C   UNL     1      15.840  -7.428  12.195  1.00  0.00     0.014 C 
ENDBRANCH  29  31
ENDBRANCH   5  21
TORSDOF 4
ENDMDL
