MODEL 1
REMARK VINA RESULT:   -10.381      0.000      0.000
REMARK INTER + INTRA:         -42.575
REMARK INTER:                 -33.746
REMARK INTRA:                  -8.830
REMARK UNBOUND:                -8.830
REMARK SMILES NC(=O)c1ccccc1OCc1cccc(C(=O)NC[C@@H](NC(=O)c2ncc[nH]2)C(=O)NCCCCCCCCCCCC([C@]23C[C@]4(S(=O)(=O)O)C[C@](S(=O)(=O)O)(C2)C[C@](S(=O)(=O)O)(C3)C4)([C@]23C[C@]4(S(=O)(=O)O)C[C@](S(=O)(=O)O)(C2)C[C@](S(=O)(=O)O)(C3)C4)[C@]23C[C@]4(S(=O)(=O)O)C[C@](S(=O)(=O)O)(C2)C[C@](S(=O)(=O)O)(C3)C4)c1
REMARK SMILES IDX 35 1 34 2 33 3 32 4 30 5 31 6 21 8 20 9 19 10 18 11 17 12
REMARK SMILES IDX 16 14 15 15 111 16 14 17 12 18 13 19 11 20 10 21 9 22 4 23
REMARK SMILES IDX 8 24 5 25 7 26 6 27 2 28 1 29 3 30 22 33 23 34 24 36 25 37
REMARK SMILES IDX 26 38 29 39 27 40 28 41 36 43 37 44 38 45 39 46 40 47 41 48
REMARK SMILES IDX 42 49 43 50 44 51 67 52 80 53 87 54 68 55 75 56 82 57 69 58
REMARK SMILES IDX 81 59 74 60 88 61 76 62 77 63 78 64 79 65 83 67 84 68 85 69
REMARK SMILES IDX 86 70 70 72 71 73 72 74 73 75 45 77 46 78 58 79 65 80 47 81
REMARK SMILES IDX 53 82 60 83 52 84 66 85 59 86 48 87 49 88 50 89 51 90 54 92
REMARK SMILES IDX 55 93 56 94 57 95 61 97 62 98 63 99 64 100 89 102 102 103
REMARK SMILES IDX 109 104 90 105 97 106 104 107 91 108 103 109 96 110 110 111
REMARK SMILES IDX 98 112 99 113 100 114 101 115 105 117 106 118 107 119
REMARK SMILES IDX 108 120 92 122 93 123 94 124 95 125
REMARK H PARENT 32 7 19 13 1 31 1 32 22 35 29 42 79 66 86 71 73 76 51 91 57 96
REMARK H PARENT 64 101 101 116 108 121 95 126
REMARK Flexibility Score: inf
ROOT
ATOM      1  C   UNL     1      21.661  -2.090  16.021  1.00  0.00     0.002 C 
ENDROOT
BRANCH   1   2
ATOM      2  C   UNL     1      20.563  -2.867  16.655  1.00  0.00     0.021 C 
BRANCH   2   3
ATOM      3  C   UNL     1      20.037  -4.010  15.896  1.00  0.00     0.116 C 
BRANCH   3   4
ATOM      4  N   UNL     1      18.963  -3.872  14.983  1.00  0.00    -0.354 N 
ATOM      5  C   UNL     1      17.590  -3.859  15.284  1.00  0.00     0.244 C 
ATOM      6  O   UNL     1      17.205  -4.046  16.462  1.00  0.00    -0.273 OA
ATOM      7  H   UNL     1      19.204  -3.768  13.955  1.00  0.00     0.163 HD
BRANCH   5   8
ATOM      8  C   UNL     1      16.578  -3.611  14.236  1.00  0.00     0.191 C 
BRANCH   8   9
ATOM      9  C   UNL     1      16.405  -2.184  13.873  1.00  0.00     0.151 C 
BRANCH   9  10
ATOM     10  N   UNL     1      17.659  -1.426  13.964  1.00  0.00    -0.349 N 
ATOM     11  O   UNL     1      16.859  -0.295  15.794  1.00  0.00    -0.269 OA
ATOM     12  C   UNL     1      17.811  -0.458  14.981  1.00  0.00     0.251 C 
ATOM     13  H   UNL     1      18.433  -1.590  13.300  1.00  0.00     0.163 HD
BRANCH  12  14
ATOM     14  C   UNL     1      19.006   0.321  15.096  1.00  0.00     0.040 A 
ATOM     15  C   UNL     1      19.732   0.723  13.992  1.00  0.00     0.014 A 
ATOM     16  C   UNL     1      19.447   0.716  16.344  1.00  0.00     0.021 A 
ATOM     17  C   UNL     1      20.863   1.501  14.173  1.00  0.00     0.001 A 
ATOM     18  C   UNL     1      20.594   1.503  16.520  1.00  0.00    -0.010 A 
ATOM     19  C   UNL     1      21.296   1.890  15.404  1.00  0.00     0.007 A 
BRANCH  18  20
ATOM     20  C   UNL     1      20.976   1.872  17.890  1.00  0.00     0.265 C 
BRANCH  20  21
ATOM     21  O   UNL     1      19.826   1.960  18.705  1.00  0.00    -0.488 OA
BRANCH  21  22
ATOM     22  C   UNL     1      19.989   2.432  20.018  1.00  0.00     0.132 A 
ATOM     23  C   UNL     1      18.872   2.661  20.769  1.00  0.00     0.081 A 
ATOM     24  C   UNL     1      21.239   2.652  20.528  1.00  0.00     0.047 A 
ATOM     25  C   UNL     1      18.993   3.124  22.075  1.00  0.00     0.018 A 
ATOM     26  C   UNL     1      21.356   3.114  21.832  1.00  0.00     0.004 A 
ATOM     27  C   UNL     1      20.249   3.348  22.597  1.00  0.00     0.001 A 
BRANCH  23  28
ATOM     28  C   UNL     1      17.540   2.448  20.197  1.00  0.00     0.252 C 
ATOM     29  N   UNL     1      17.434   2.354  18.789  1.00  0.00    -0.365 N 
ATOM     30  O   UNL     1      16.550   2.358  20.958  1.00  0.00    -0.269 OA
ATOM     31  H   UNL     1      17.452   3.202  18.181  1.00  0.00     0.159 HD
ATOM     32  H   UNL     1      17.334   1.430  18.312  1.00  0.00     0.159 HD
ENDBRANCH  23  28
ENDBRANCH  21  22
ENDBRANCH  20  21
ENDBRANCH  18  20
ENDBRANCH  12  14
ENDBRANCH   9  10
ENDBRANCH   8   9
BRANCH   8  33
ATOM     33  N   UNL     1      16.574  -4.493  13.112  1.00  0.00    -0.336 N 
ATOM     34  C   UNL     1      15.810  -5.662  12.958  1.00  0.00     0.287 C 
ATOM     35  H   UNL     1      17.227  -4.237  12.311  1.00  0.00     0.164 HD
ATOM     36  O   UNL     1      15.051  -6.067  13.859  1.00  0.00    -0.266 OA
BRANCH  34  37
ATOM     37  C   UNL     1      15.890  -6.447  11.700  1.00  0.00     0.196 A 
ATOM     38  N   UNL     1      16.733  -7.402  11.420  1.00  0.00    -0.232 NA
ATOM     39  N   UNL     1      15.003  -6.322  10.680  1.00  0.00    -0.341 N 
ATOM     40  C   UNL     1      16.448  -7.952  10.214  1.00  0.00     0.131 A 
ATOM     41  C   UNL     1      15.329  -7.233   9.763  1.00  0.00     0.104 A 
ATOM     42  H   UNL     1      14.236  -5.647  10.655  1.00  0.00     0.168 HD
ENDBRANCH  34  37
ENDBRANCH   8  33
ENDBRANCH   5   8
ENDBRANCH   3   4
ENDBRANCH   2   3
ENDBRANCH   1   2
BRANCH   1  43
ATOM     43  C   UNL     1      22.566  -1.507  17.106  1.00  0.00     0.000 C 
BRANCH  43  44
ATOM     44  C   UNL     1      23.654  -0.697  16.540  1.00  0.00     0.000 C 
BRANCH  44  45
ATOM     45  C   UNL     1      24.339   0.197  17.619  1.00  0.00     0.000 C 
BRANCH  45  46
ATOM     46  C   UNL     1      24.608   1.518  16.991  1.00  0.00     0.000 C 
BRANCH  46  47
ATOM     47  C   UNL     1      24.680   2.685  17.942  1.00  0.00     0.000 C 
BRANCH  47  48
ATOM     48  C   UNL     1      25.590   3.774  17.407  1.00  0.00     0.000 C 
BRANCH  48  49
ATOM     49  C   UNL     1      25.438   5.082  18.058  1.00  0.00     0.001 C 
BRANCH  49  50
ATOM     50  C   UNL     1      25.950   6.313  18.125  1.00  0.00     0.009 C 
BRANCH  50  51
ATOM     51  C   UNL     1      26.333   7.702  17.622  1.00  0.00    -0.012 C 
BRANCH  51  52
ATOM     52  C   UNL     1      27.854   7.711  17.639  1.00  0.00    -0.018 C 
ATOM     53  C   UNL     1      28.548   6.647  16.843  1.00  0.00     0.033 C 
ATOM     54  C   UNL     1      28.453   8.914  17.052  1.00  0.00     0.033 C 
ATOM     55  C   UNL     1      28.463   7.523  19.011  1.00  0.00     0.033 C 
ATOM     56  C   UNL     1      30.033   6.605  17.018  1.00  0.00     0.101 C 
ATOM     57  C   UNL     1      29.997   8.937  17.063  1.00  0.00     0.101 C 
ATOM     58  C   UNL     1      29.934   7.836  19.099  1.00  0.00     0.101 C 
ATOM     59  C   UNL     1      30.595   7.831  16.271  1.00  0.00     0.051 C 
ATOM     60  C   UNL     1      30.651   6.693  18.332  1.00  0.00     0.051 C 
ATOM     61  C   UNL     1      30.397   9.090  18.474  1.00  0.00     0.051 C 
BRANCH  56  62
ATOM     62  S   UNL     1      30.673   5.187  16.151  1.00  0.00     0.270 S 
ATOM     63  O   UNL     1      29.643   4.085  16.092  1.00  0.00    -0.199 OA
ATOM     64  O   UNL     1      31.922   4.721  16.848  1.00  0.00    -0.199 OA
BRANCH  62  65
ATOM     65  O   UNL     1      31.078   5.665  14.594  1.00  0.00    -0.285 OA
ATOM     66  H   UNL     1      31.331   4.918  13.996  1.00  0.00     0.234 HD
ENDBRANCH  62  65
ENDBRANCH  56  62
BRANCH  57  67
ATOM     67  S   UNL     1      30.476  10.438  16.202  1.00  0.00     0.270 S 
ATOM     68  O   UNL     1      29.616  11.593  16.678  1.00  0.00    -0.199 OA
ATOM     69  O   UNL     1      30.326  10.267  14.721  1.00  0.00    -0.199 OA
BRANCH  67  70
ATOM     70  O   UNL     1      32.064  10.841  16.531  1.00  0.00    -0.285 OA
ATOM     71  H   UNL     1      32.146  11.603  17.125  1.00  0.00     0.234 HD
ENDBRANCH  67  70
ENDBRANCH  57  67
BRANCH  58  72
ATOM     72  S   UNL     1      30.456   7.695  20.785  1.00  0.00     0.270 S 
ATOM     73  O   UNL     1      31.891   8.181  20.858  1.00  0.00    -0.199 OA
ATOM     74  O   UNL     1      30.395   6.243  21.170  1.00  0.00    -0.199 OA
BRANCH  72  75
ATOM     75  O   UNL     1      29.533   8.640  21.803  1.00  0.00    -0.285 OA
ATOM     76  H   UNL     1      29.389   9.542  21.440  1.00  0.00     0.234 HD
ENDBRANCH  72  75
ENDBRANCH  58  72
ENDBRANCH  51  52
BRANCH  51  77
ATOM     77  C   UNL     1      25.684   8.603  18.658  1.00  0.00    -0.018 C 
ATOM     78  C   UNL     1      24.195   8.382  18.775  1.00  0.00     0.033 C 
ATOM     79  C   UNL     1      26.000  10.061  18.533  1.00  0.00     0.033 C 
ATOM     80  C   UNL     1      26.038   8.449  20.082  1.00  0.00     0.033 C 
ATOM     81  C   UNL     1      23.447   9.347  19.641  1.00  0.00     0.101 C 
ATOM     82  C   UNL     1      25.067  10.980  19.323  1.00  0.00     0.101 C 
ATOM     83  C   UNL     1      25.243   9.387  21.024  1.00  0.00     0.101 C 
ATOM     84  C   UNL     1      23.630  10.725  19.138  1.00  0.00     0.051 C 
ATOM     85  C   UNL     1      23.796   9.094  21.073  1.00  0.00     0.051 C 
ATOM     86  C   UNL     1      25.454  10.814  20.792  1.00  0.00     0.051 C 
BRANCH  81  87
ATOM     87  S   UNL     1      21.685   9.004  19.587  1.00  0.00     0.270 S 
ATOM     88  O   UNL     1      21.381   7.614  20.022  1.00  0.00    -0.199 OA
ATOM     89  O   UNL     1      21.003   9.968  20.524  1.00  0.00    -0.199 OA
BRANCH  87  90
ATOM     90  O   UNL     1      21.121   9.330  18.045  1.00  0.00    -0.285 OA
ATOM     91  H   UNL     1      21.475  10.239  17.803  1.00  0.00     0.234 HD
ENDBRANCH  87  90
ENDBRANCH  81  87
BRANCH  82  92
ATOM     92  S   UNL     1      25.384  12.687  18.952  1.00  0.00     0.270 S 
ATOM     93  O   UNL     1      26.475  12.879  17.971  1.00  0.00    -0.199 OA
ATOM     94  O   UNL     1      25.633  13.387  20.246  1.00  0.00    -0.199 OA
BRANCH  92  95
ATOM     95  O   UNL     1      23.944  13.308  18.300  1.00  0.00    -0.285 OA
ATOM     96  H   UNL     1      23.657  12.742  17.533  1.00  0.00     0.234 HD
ENDBRANCH  92  95
ENDBRANCH  82  92
BRANCH  83  97
ATOM     97  S   UNL     1      25.853   9.005  22.679  1.00  0.00     0.270 S 
ATOM     98  O   UNL     1      27.230   9.510  22.900  1.00  0.00    -0.199 OA
ATOM     99  O   UNL     1      24.976   9.648  23.726  1.00  0.00    -0.199 OA
BRANCH  97 100
ATOM    100  O   UNL     1      25.805   7.356  22.934  1.00  0.00    -0.285 OA
ATOM    101  H   UNL     1      24.878   7.028  23.064  1.00  0.00     0.234 HD
ENDBRANCH  97 100
ENDBRANCH  83  97
ENDBRANCH  51  77
BRANCH  51 102
ATOM    102  C   UNL     1      25.848   7.798  16.189  1.00  0.00    -0.018 C 
ATOM    103  C   UNL     1      24.426   7.667  15.872  1.00  0.00     0.033 C 
ATOM    104  C   UNL     1      26.567   8.840  15.383  1.00  0.00     0.033 C 
ATOM    105  C   UNL     1      26.380   6.591  15.348  1.00  0.00     0.033 C 
ATOM    106  C   UNL     1      24.067   7.952  14.392  1.00  0.00     0.101 C 
ATOM    107  C   UNL     1      26.090   9.003  13.965  1.00  0.00     0.101 C 
ATOM    108  C   UNL     1      25.939   6.671  13.887  1.00  0.00     0.101 C 
ATOM    109  C   UNL     1      24.629   9.227  13.910  1.00  0.00     0.051 C 
ATOM    110  C   UNL     1      24.499   6.717  13.635  1.00  0.00     0.051 C 
ATOM    111  C   UNL     1      26.561   7.822  13.135  1.00  0.00     0.051 C 
BRANCH 106 112
ATOM    112  S   UNL     1      22.290   8.000  14.218  1.00  0.00     0.270 S 
ATOM    113  O   UNL     1      21.950   9.172  13.356  1.00  0.00    -0.199 OA
ATOM    114  O   UNL     1      21.665   8.245  15.584  1.00  0.00    -0.199 OA
BRANCH 112 115
ATOM    115  O   UNL     1      21.702   6.568  13.603  1.00  0.00    -0.285 OA
ATOM    116  H   UNL     1      21.477   5.962  14.337  1.00  0.00     0.234 HD
ENDBRANCH 112 115
ENDBRANCH 106 112
BRANCH 107 117
ATOM    117  S   UNL     1      26.926  10.418  13.279  1.00  0.00     0.270 S 
ATOM    118  O   UNL     1      25.858  11.226  12.554  1.00  0.00    -0.199 OA
ATOM    119  O   UNL     1      27.974  10.039  12.316  1.00  0.00    -0.199 OA
BRANCH 117 120
ATOM    120  O   UNL     1      27.475  11.401  14.521  1.00  0.00    -0.285 OA
ATOM    121  H   UNL     1      28.207  11.953  14.161  1.00  0.00     0.234 HD
ENDBRANCH 117 120
ENDBRANCH 107 117
BRANCH 108 122
ATOM    122  S   UNL     1      26.592   5.190  13.119  1.00  0.00     0.270 S 
ATOM    123  O   UNL     1      25.914   4.038  13.784  1.00  0.00    -0.199 OA
ATOM    124  O   UNL     1      26.359   5.220  11.641  1.00  0.00    -0.199 OA
BRANCH 122 125
ATOM    125  O   UNL     1      28.225   5.119  13.503  1.00  0.00    -0.285 OA
ATOM    126  H   UNL     1      28.466   4.157  13.561  1.00  0.00     0.234 HD
ENDBRANCH 122 125
ENDBRANCH 108 122
ENDBRANCH  51 102
ENDBRANCH  50  51
ENDBRANCH  49  50
ENDBRANCH  48  49
ENDBRANCH  47  48
ENDBRANCH  46  47
ENDBRANCH  45  46
ENDBRANCH  44  45
ENDBRANCH  43  44
ENDBRANCH   1  43
TORSDOF 43
ENDMDL
MODEL 2
REMARK VINA RESULT:   -10.245      0.695      2.469
REMARK INTER + INTRA:         -42.134
REMARK INTER:                 -33.981
REMARK INTRA:                  -8.153
REMARK UNBOUND:                -8.830
REMARK SMILES NC(=O)c1ccccc1OCc1cccc(C(=O)NC[C@@H](NC(=O)c2ncc[nH]2)C(=O)NCCCCCCCCCCCC([C@]23C[C@]4(S(=O)(=O)O)C[C@](S(=O)(=O)O)(C2)C[C@](S(=O)(=O)O)(C3)C4)([C@]23C[C@]4(S(=O)(=O)O)C[C@](S(=O)(=O)O)(C2)C[C@](S(=O)(=O)O)(C3)C4)[C@]23C[C@]4(S(=O)(=O)O)C[C@](S(=O)(=O)O)(C2)C[C@](S(=O)(=O)O)(C3)C4)c1
REMARK SMILES IDX 35 1 34 2 33 3 32 4 30 5 31 6 21 8 20 9 19 10 18 11 17 12
REMARK SMILES IDX 16 14 15 15 111 16 14 17 12 18 13 19 11 20 10 21 9 22 4 23
REMARK SMILES IDX 8 24 5 25 7 26 6 27 2 28 1 29 3 30 22 33 23 34 24 36 25 37
REMARK SMILES IDX 26 38 29 39 27 40 28 41 36 43 37 44 38 45 39 46 40 47 41 48
REMARK SMILES IDX 42 49 43 50 44 51 67 52 80 53 87 54 68 55 75 56 82 57 69 58
REMARK SMILES IDX 81 59 74 60 88 61 76 62 77 63 78 64 79 65 83 67 84 68 85 69
REMARK SMILES IDX 86 70 70 72 71 73 72 74 73 75 45 77 46 78 58 79 65 80 47 81
REMARK SMILES IDX 53 82 60 83 52 84 66 85 59 86 48 87 49 88 50 89 51 90 54 92
REMARK SMILES IDX 55 93 56 94 57 95 61 97 62 98 63 99 64 100 89 102 102 103
REMARK SMILES IDX 109 104 90 105 97 106 104 107 91 108 103 109 96 110 110 111
REMARK SMILES IDX 98 112 99 113 100 114 101 115 105 117 106 118 107 119
REMARK SMILES IDX 108 120 92 122 93 123 94 124 95 125
REMARK H PARENT 32 7 19 13 1 31 1 32 22 35 29 42 79 66 86 71 73 76 51 91 57 96
REMARK H PARENT 64 101 101 116 108 121 95 126
REMARK Flexibility Score: inf
ROOT
ATOM      1  C   UNL     1      21.796  -2.054  16.159  1.00  0.00     0.002 C 
ENDROOT
BRANCH   1   2
ATOM      2  C   UNL     1      20.737  -2.839  16.846  1.00  0.00     0.021 C 
BRANCH   2   3
ATOM      3  C   UNL     1      20.233  -4.028  16.144  1.00  0.00     0.116 C 
BRANCH   3   4
ATOM      4  N   UNL     1      19.158  -3.956  15.226  1.00  0.00    -0.354 N 
ATOM      5  C   UNL     1      17.785  -4.041  15.518  1.00  0.00     0.244 C 
ATOM      6  O   UNL     1      17.407  -4.266  16.690  1.00  0.00    -0.273 OA
ATOM      7  H   UNL     1      19.397  -3.825  14.200  1.00  0.00     0.163 HD
BRANCH   5   8
ATOM      8  C   UNL     1      16.765  -3.853  14.465  1.00  0.00     0.191 C 
BRANCH   8   9
ATOM      9  C   UNL     1      16.569  -2.446  14.043  1.00  0.00     0.151 C 
BRANCH   9  10
ATOM     10  N   UNL     1      17.805  -1.658  14.121  1.00  0.00    -0.349 N 
ATOM     11  O   UNL     1      16.877  -0.338  15.753  1.00  0.00    -0.269 OA
ATOM     12  C   UNL     1      17.880  -0.576  15.025  1.00  0.00     0.251 C 
ATOM     13  H   UNL     1      18.622  -1.884  13.530  1.00  0.00     0.163 HD
BRANCH  12  14
ATOM     14  C   UNL     1      19.057   0.234  15.121  1.00  0.00     0.040 A 
ATOM     15  C   UNL     1      19.770   0.631  14.007  1.00  0.00     0.014 A 
ATOM     16  C   UNL     1      19.491   0.664  16.360  1.00  0.00     0.021 A 
ATOM     17  C   UNL     1      20.883   1.440  14.169  1.00  0.00     0.001 A 
ATOM     18  C   UNL     1      20.619   1.482  16.517  1.00  0.00    -0.010 A 
ATOM     19  C   UNL     1      21.309   1.864  15.391  1.00  0.00     0.007 A 
BRANCH  18  20
ATOM     20  C   UNL     1      20.995   1.888  17.878  1.00  0.00     0.265 C 
BRANCH  20  21
ATOM     21  O   UNL     1      19.848   1.940  18.700  1.00  0.00    -0.488 OA
BRANCH  21  22
ATOM     22  C   UNL     1      20.005   2.416  20.013  1.00  0.00     0.132 A 
ATOM     23  C   UNL     1      18.885   2.645  20.758  1.00  0.00     0.081 A 
ATOM     24  C   UNL     1      21.253   2.639  20.528  1.00  0.00     0.047 A 
ATOM     25  C   UNL     1      19.000   3.113  22.064  1.00  0.00     0.018 A 
ATOM     26  C   UNL     1      21.364   3.104  21.830  1.00  0.00     0.004 A 
ATOM     27  C   UNL     1      20.253   3.339  22.590  1.00  0.00     0.001 A 
BRANCH  23  28
ATOM     28  C   UNL     1      17.555   2.429  20.182  1.00  0.00     0.252 C 
ATOM     29  N   UNL     1      17.452   2.352  18.773  1.00  0.00    -0.365 N 
ATOM     30  O   UNL     1      16.565   2.322  20.941  1.00  0.00    -0.269 OA
ATOM     31  H   UNL     1      17.464   3.208  18.175  1.00  0.00     0.159 HD
ATOM     32  H   UNL     1      17.360   1.433  18.285  1.00  0.00     0.159 HD
ENDBRANCH  23  28
ENDBRANCH  21  22
ENDBRANCH  20  21
ENDBRANCH  18  20
ENDBRANCH  12  14
ENDBRANCH   9  10
ENDBRANCH   8   9
BRANCH   8  33
ATOM     33  N   UNL     1      16.770  -4.782  13.379  1.00  0.00    -0.336 N 
ATOM     34  C   UNL     1      15.652  -5.383  12.775  1.00  0.00     0.287 C 
ATOM     35  H   UNL     1      17.726  -5.051  12.994  1.00  0.00     0.164 HD
ATOM     36  O   UNL     1      14.496  -5.166  13.185  1.00  0.00    -0.266 OA
BRANCH  34  37
ATOM     37  C   UNL     1      15.829  -6.298  11.619  1.00  0.00     0.196 A 
ATOM     38  N   UNL     1      16.755  -7.204  11.467  1.00  0.00    -0.232 NA
ATOM     39  N   UNL     1      14.962  -6.367  10.578  1.00  0.00    -0.341 N 
ATOM     40  C   UNL     1      16.548  -7.911  10.329  1.00  0.00     0.131 A 
ATOM     41  C   UNL     1      15.385  -7.348   9.779  1.00  0.00     0.104 A 
ATOM     42  H   UNL     1      14.142  -5.767  10.461  1.00  0.00     0.168 HD
ENDBRANCH  34  37
ENDBRANCH   8  33
ENDBRANCH   5   8
ENDBRANCH   3   4
ENDBRANCH   2   3
ENDBRANCH   1   2
BRANCH   1  43
ATOM     43  C   UNL     1      22.687  -1.377  17.200  1.00  0.00     0.000 C 
BRANCH  43  44
ATOM     44  C   UNL     1      23.754  -0.581  16.578  1.00  0.00     0.000 C 
BRANCH  44  45
ATOM     45  C   UNL     1      24.407   0.412  17.589  1.00  0.00     0.000 C 
BRANCH  45  46
ATOM     46  C   UNL     1      24.766   1.640  16.832  1.00  0.00     0.000 C 
BRANCH  46  47
ATOM     47  C   UNL     1      24.669   2.930  17.606  1.00  0.00     0.000 C 
BRANCH  47  48
ATOM     48  C   UNL     1      25.650   3.960  17.081  1.00  0.00     0.000 C 
BRANCH  48  49
ATOM     49  C   UNL     1      25.457   5.319  17.605  1.00  0.00     0.001 C 
BRANCH  49  50
ATOM     50  C   UNL     1      26.057   6.502  17.766  1.00  0.00     0.009 C 
BRANCH  50  51
ATOM     51  C   UNL     1      26.660   7.838  17.341  1.00  0.00    -0.012 C 
BRANCH  51  52
ATOM     52  C   UNL     1      28.163   7.635  17.459  1.00  0.00    -0.018 C 
ATOM     53  C   UNL     1      28.732   6.395  16.836  1.00  0.00     0.033 C 
ATOM     54  C   UNL     1      28.961   8.662  16.783  1.00  0.00     0.033 C 
ATOM     55  C   UNL     1      28.668   7.530  18.882  1.00  0.00     0.033 C 
ATOM     56  C   UNL     1      30.183   6.167  17.113  1.00  0.00     0.101 C 
ATOM     57  C   UNL     1      30.489   8.469  16.893  1.00  0.00     0.101 C 
ATOM     58  C   UNL     1      30.164   7.642  19.031  1.00  0.00     0.101 C 
ATOM     59  C   UNL     1      30.957   7.202  16.273  1.00  0.00     0.051 C 
ATOM     60  C   UNL     1      30.742   6.325  18.448  1.00  0.00     0.051 C 
ATOM     61  C   UNL     1      30.837   8.734  18.303  1.00  0.00     0.051 C 
BRANCH  56  62
ATOM     62  S   UNL     1      30.651   4.579  16.456  1.00  0.00     0.270 S 
ATOM     63  O   UNL     1      29.431   3.787  16.049  1.00  0.00    -0.199 OA
ATOM     64  O   UNL     1      31.449   3.844  17.497  1.00  0.00    -0.199 OA
BRANCH  62  65
ATOM     65  O   UNL     1      31.628   4.835  15.116  1.00  0.00    -0.285 OA
ATOM     66  H   UNL     1      32.056   5.728  15.094  1.00  0.00     0.234 HD
ENDBRANCH  62  65
ENDBRANCH  56  62
BRANCH  57  67
ATOM     67  S   UNL     1      31.226   9.773  15.904  1.00  0.00     0.270 S 
ATOM     68  O   UNL     1      31.973   9.162  14.733  1.00  0.00    -0.199 OA
ATOM     69  O   UNL     1      32.164  10.598  16.732  1.00  0.00    -0.199 OA
BRANCH  67  70
ATOM     70  O   UNL     1      30.055  10.780  15.266  1.00  0.00    -0.285 OA
ATOM     71  H   UNL     1      30.185  11.710  15.504  1.00  0.00     0.234 HD
ENDBRANCH  67  70
ENDBRANCH  57  67
BRANCH  58  72
ATOM     72  S   UNL     1      30.574   7.634  20.754  1.00  0.00     0.270 S 
ATOM     73  O   UNL     1      30.504   6.196  21.231  1.00  0.00    -0.199 OA
ATOM     74  O   UNL     1      29.546   8.456  21.481  1.00  0.00    -0.199 OA
BRANCH  72  75
ATOM     75  O   UNL     1      32.119   8.200  21.028  1.00  0.00    -0.285 OA
ATOM     76  H   UNL     1      32.287   9.049  20.564  1.00  0.00     0.234 HD
ENDBRANCH  72  75
ENDBRANCH  58  72
ENDBRANCH  51  52
BRANCH  51  77
ATOM     77  C   UNL     1      26.069   8.791  18.366  1.00  0.00    -0.018 C 
ATOM     78  C   UNL     1      24.566   8.899  18.264  1.00  0.00     0.033 C 
ATOM     79  C   UNL     1      26.701  10.146  18.425  1.00  0.00     0.033 C 
ATOM     80  C   UNL     1      26.166   8.469  19.802  1.00  0.00     0.033 C 
ATOM     81  C   UNL     1      23.918   9.948  19.113  1.00  0.00     0.101 C 
ATOM     82  C   UNL     1      25.876  11.196  19.170  1.00  0.00     0.101 C 
ATOM     83  C   UNL     1      25.456   9.497  20.718  1.00  0.00     0.101 C 
ATOM     84  C   UNL     1      24.462  11.281  18.774  1.00  0.00     0.051 C 
ATOM     85  C   UNL     1      23.989   9.531  20.548  1.00  0.00     0.051 C 
ATOM     86  C   UNL     1      25.996  10.852  20.654  1.00  0.00     0.051 C 
BRANCH  81  87
ATOM     87  S   UNL     1      22.153  10.011  18.796  1.00  0.00     0.270 S 
ATOM     88  O   UNL     1      21.365   9.988  20.058  1.00  0.00    -0.199 OA
ATOM     89  O   UNL     1      21.865  11.298  18.066  1.00  0.00    -0.199 OA
BRANCH  87  90
ATOM     90  O   UNL     1      21.747   8.756  17.765  1.00  0.00    -0.285 OA
ATOM     91  H   UNL     1      21.858   7.910  18.295  1.00  0.00     0.234 HD
ENDBRANCH  87  90
ENDBRANCH  81  87
BRANCH  82  92
ATOM     92  S   UNL     1      26.598  12.811  19.010  1.00  0.00     0.270 S 
ATOM     93  O   UNL     1      27.395  12.974  17.775  1.00  0.00    -0.199 OA
ATOM     94  O   UNL     1      27.384  13.073  20.251  1.00  0.00    -0.199 OA
BRANCH  92  95
ATOM     95  O   UNL     1      25.304  13.911  18.979  1.00  0.00    -0.285 OA
ATOM     96  H   UNL     1      24.599  13.609  19.613  1.00  0.00     0.234 HD
ENDBRANCH  92  95
ENDBRANCH  82  92
BRANCH  83  97
ATOM     97  S   UNL     1      25.718   8.880  22.394  1.00  0.00     0.270 S 
ATOM     98  O   UNL     1      25.609   7.404  22.472  1.00  0.00    -0.199 OA
ATOM     99  O   UNL     1      27.100   9.246  22.881  1.00  0.00    -0.199 OA
BRANCH  97 100
ATOM    100  O   UNL     1      24.621   9.587  23.436  1.00  0.00    -0.285 OA
ATOM    101  H   UNL     1      24.738  10.571  23.485  1.00  0.00     0.234 HD
ENDBRANCH  97 100
ENDBRANCH  83  97
ENDBRANCH  51  77
BRANCH  51 102
ATOM    102  C   UNL     1      26.295   8.040  15.885  1.00  0.00    -0.018 C 
ATOM    103  C   UNL     1      26.846   9.164  15.126  1.00  0.00     0.033 C 
ATOM    104  C   UNL     1      26.198   6.760  15.109  1.00  0.00     0.033 C 
ATOM    105  C   UNL     1      24.778   8.395  15.743  1.00  0.00     0.033 C 
ATOM    106  C   UNL     1      26.514   9.145  13.613  1.00  0.00     0.101 C 
ATOM    107  C   UNL     1      25.880   6.913  13.645  1.00  0.00     0.101 C 
ATOM    108  C   UNL     1      24.363   8.574  14.284  1.00  0.00     0.101 C 
ATOM    109  C   UNL     1      26.819   7.846  12.985  1.00  0.00     0.051 C 
ATOM    110  C   UNL     1      25.075   9.596  13.517  1.00  0.00     0.051 C 
ATOM    111  C   UNL     1      24.420   7.296  13.483  1.00  0.00     0.051 C 
BRANCH 106 112
ATOM    112  S   UNL     1      27.454  10.421  12.790  1.00  0.00     0.270 S 
ATOM    113  O   UNL     1      28.867   9.947  12.686  1.00  0.00    -0.199 OA
ATOM    114  O   UNL     1      27.457  11.671  13.657  1.00  0.00    -0.199 OA
BRANCH 112 115
ATOM    115  O   UNL     1      26.798  10.794  11.304  1.00  0.00    -0.285 OA
ATOM    116  H   UNL     1      26.607  11.752  11.260  1.00  0.00     0.234 HD
ENDBRANCH 112 115
ENDBRANCH 106 112
BRANCH 107 117
ATOM    117  S   UNL     1      26.026   5.305  12.895  1.00  0.00     0.270 S 
ATOM    118  O   UNL     1      27.411   4.792  13.267  1.00  0.00    -0.199 OA
ATOM    119  O   UNL     1      25.915   5.357  11.427  1.00  0.00    -0.199 OA
BRANCH 117 120
ATOM    120  O   UNL     1      24.942   4.250  13.617  1.00  0.00    -0.285 OA
ATOM    121  H   UNL     1      24.264   4.794  14.081  1.00  0.00     0.234 HD
ENDBRANCH 117 120
ENDBRANCH 107 117
BRANCH 108 122
ATOM    122  S   UNL     1      22.631   9.025  14.341  1.00  0.00     0.270 S 
ATOM    123  O   UNL     1      22.544  10.250  15.190  1.00  0.00    -0.199 OA
ATOM    124  O   UNL     1      22.101   9.245  12.959  1.00  0.00    -0.199 OA
BRANCH 122 125
ATOM    125  O   UNL     1      21.828   7.787  15.140  1.00  0.00    -0.285 OA
ATOM    126  H   UNL     1      21.162   8.214  15.740  1.00  0.00     0.234 HD
ENDBRANCH 122 125
ENDBRANCH 108 122
ENDBRANCH  51 102
ENDBRANCH  50  51
ENDBRANCH  49  50
ENDBRANCH  48  49
ENDBRANCH  47  48
ENDBRANCH  46  47
ENDBRANCH  45  46
ENDBRANCH  44  45
ENDBRANCH  43  44
ENDBRANCH   1  43
TORSDOF 43
ENDMDL
MODEL 3
REMARK VINA RESULT:   -10.182      1.122      6.192
REMARK INTER + INTRA:         -41.930
REMARK INTER:                 -33.539
REMARK INTRA:                  -8.390
REMARK UNBOUND:                -8.830
REMARK SMILES NC(=O)c1ccccc1OCc1cccc(C(=O)NC[C@@H](NC(=O)c2ncc[nH]2)C(=O)NCCCCCCCCCCCC([C@]23C[C@]4(S(=O)(=O)O)C[C@](S(=O)(=O)O)(C2)C[C@](S(=O)(=O)O)(C3)C4)([C@]23C[C@]4(S(=O)(=O)O)C[C@](S(=O)(=O)O)(C2)C[C@](S(=O)(=O)O)(C3)C4)[C@]23C[C@]4(S(=O)(=O)O)C[C@](S(=O)(=O)O)(C2)C[C@](S(=O)(=O)O)(C3)C4)c1
REMARK SMILES IDX 35 1 34 2 33 3 32 4 30 5 31 6 21 8 20 9 19 10 18 11 17 12
REMARK SMILES IDX 16 14 15 15 111 16 14 17 12 18 13 19 11 20 10 21 9 22 4 23
REMARK SMILES IDX 8 24 5 25 7 26 6 27 2 28 1 29 3 30 22 33 23 34 24 36 25 37
REMARK SMILES IDX 26 38 29 39 27 40 28 41 36 43 37 44 38 45 39 46 40 47 41 48
REMARK SMILES IDX 42 49 43 50 44 51 67 52 80 53 87 54 68 55 75 56 82 57 69 58
REMARK SMILES IDX 81 59 74 60 88 61 76 62 77 63 78 64 79 65 83 67 84 68 85 69
REMARK SMILES IDX 86 70 70 72 71 73 72 74 73 75 45 77 46 78 58 79 65 80 47 81
REMARK SMILES IDX 53 82 60 83 52 84 66 85 59 86 48 87 49 88 50 89 51 90 54 92
REMARK SMILES IDX 55 93 56 94 57 95 61 97 62 98 63 99 64 100 89 102 102 103
REMARK SMILES IDX 109 104 90 105 97 106 104 107 91 108 103 109 96 110 110 111
REMARK SMILES IDX 98 112 99 113 100 114 101 115 105 117 106 118 107 119
REMARK SMILES IDX 108 120 92 122 93 123 94 124 95 125
REMARK H PARENT 32 7 19 13 1 31 1 32 22 35 29 42 79 66 86 71 73 76 51 91 57 96
REMARK H PARENT 64 101 101 116 108 121 95 126
REMARK Flexibility Score: inf
ROOT
ATOM      1  C   UNL     1      22.107  -2.114  16.718  1.00  0.00     0.002 C 
ENDROOT
BRANCH   1   2
ATOM      2  C   UNL     1      20.746  -2.630  17.021  1.00  0.00     0.021 C 
BRANCH   2   3
ATOM      3  C   UNL     1      20.430  -3.984  16.547  1.00  0.00     0.116 C 
BRANCH   3   4
ATOM      4  N   UNL     1      19.153  -4.319  16.034  1.00  0.00    -0.354 N 
ATOM      5  C   UNL     1      18.001  -4.645  16.771  1.00  0.00     0.244 C 
ATOM      6  O   UNL     1      18.059  -4.726  18.020  1.00  0.00    -0.273 OA
ATOM      7  H   UNL     1      19.036  -4.331  14.979  1.00  0.00     0.163 HD
BRANCH   5   8
ATOM      8  C   UNL     1      16.704  -4.882  16.102  1.00  0.00     0.191 C 
BRANCH   8   9
ATOM      9  C   UNL     1      15.780  -3.724  16.126  1.00  0.00     0.151 C 
BRANCH   9  10
ATOM     10  N   UNL     1      16.489  -2.438  16.145  1.00  0.00    -0.349 N 
ATOM     11  O   UNL     1      15.441  -1.818  14.199  1.00  0.00    -0.269 OA
ATOM     12  C   UNL     1      16.265  -1.510  15.104  1.00  0.00     0.251 C 
ATOM     13  H   UNL     1      17.144  -2.199  16.906  1.00  0.00     0.163 HD
BRANCH  12  14
ATOM     14  C   UNL     1      16.950  -0.254  15.067  1.00  0.00     0.040 A 
ATOM     15  C   UNL     1      16.697   0.694  14.094  1.00  0.00     0.014 A 
ATOM     16  C   UNL     1      17.878   0.047  16.044  1.00  0.00     0.021 A 
ATOM     17  C   UNL     1      17.375   1.901  14.134  1.00  0.00     0.001 A 
ATOM     18  C   UNL     1      18.562   1.272  16.078  1.00  0.00    -0.010 A 
ATOM     19  C   UNL     1      18.289   2.197  15.099  1.00  0.00     0.007 A 
BRANCH  18  20
ATOM     20  C   UNL     1      19.527   1.495  17.162  1.00  0.00     0.265 C 
BRANCH  20  21
ATOM     21  O   UNL     1      18.849   1.885  18.339  1.00  0.00    -0.488 OA
BRANCH  21  22
ATOM     22  C   UNL     1      19.626   2.280  19.442  1.00  0.00     0.132 A 
ATOM     23  C   UNL     1      18.984   2.665  20.583  1.00  0.00     0.081 A 
ATOM     24  C   UNL     1      20.992   2.273  19.368  1.00  0.00     0.047 A 
ATOM     25  C   UNL     1      19.719   3.058  21.697  1.00  0.00     0.018 A 
ATOM     26  C   UNL     1      21.722   2.665  20.481  1.00  0.00     0.004 A 
ATOM     27  C   UNL     1      21.095   3.053  21.631  1.00  0.00     0.001 A 
BRANCH  23  28
ATOM     28  C   UNL     1      17.520   2.694  20.635  1.00  0.00     0.252 C 
ATOM     29  N   UNL     1      16.888   2.065  21.734  1.00  0.00    -0.365 N 
ATOM     30  O   UNL     1      16.882   3.265  19.722  1.00  0.00    -0.269 OA
ATOM     31  H   UNL     1      16.771   1.028  21.779  1.00  0.00     0.159 HD
ATOM     32  H   UNL     1      16.516   2.620  22.537  1.00  0.00     0.159 HD
ENDBRANCH  23  28
ENDBRANCH  21  22
ENDBRANCH  20  21
ENDBRANCH  18  20
ENDBRANCH  12  14
ENDBRANCH   9  10
ENDBRANCH   8   9
BRANCH   8  33
ATOM     33  N   UNL     1      16.734  -5.566  14.849  1.00  0.00    -0.336 N 
ATOM     34  C   UNL     1      15.747  -6.422  14.329  1.00  0.00     0.287 C 
ATOM     35  H   UNL     1      17.601  -5.415  14.250  1.00  0.00     0.164 HD
ATOM     36  O   UNL     1      14.718  -6.695  14.975  1.00  0.00    -0.266 OA
BRANCH  34  37
ATOM     37  C   UNL     1      15.912  -7.021  12.981  1.00  0.00     0.196 A 
ATOM     38  N   UNL     1      16.092  -8.282  12.696  1.00  0.00    -0.232 NA
ATOM     39  N   UNL     1      15.802  -6.315  11.827  1.00  0.00    -0.341 N 
ATOM     40  C   UNL     1      16.110  -8.470  11.354  1.00  0.00     0.131 A 
ATOM     41  C   UNL     1      15.920  -7.184  10.823  1.00  0.00     0.104 A 
ATOM     42  H   UNL     1      15.651  -5.305  11.774  1.00  0.00     0.168 HD
ENDBRANCH  34  37
ENDBRANCH   8  33
ENDBRANCH   5   8
ENDBRANCH   3   4
ENDBRANCH   2   3
ENDBRANCH   1   2
BRANCH   1  43
ATOM     43  C   UNL     1      22.283  -0.733  17.350  1.00  0.00     0.000 C 
BRANCH  43  44
ATOM     44  C   UNL     1      23.675  -0.269  17.281  1.00  0.00     0.000 C 
BRANCH  44  45
ATOM     45  C   UNL     1      23.770   1.288  17.244  1.00  0.00     0.000 C 
BRANCH  45  46
ATOM     46  C   UNL     1      24.821   1.689  18.217  1.00  0.00     0.000 C 
BRANCH  46  47
ATOM     47  C   UNL     1      24.800   3.137  18.634  1.00  0.00     0.000 C 
BRANCH  47  48
ATOM     48  C   UNL     1      25.469   4.017  17.595  1.00  0.00     0.000 C 
BRANCH  48  49
ATOM     49  C   UNL     1      25.455   5.454  17.902  1.00  0.00     0.001 C 
BRANCH  49  50
ATOM     50  C   UNL     1      26.219   6.548  17.950  1.00  0.00     0.009 C 
BRANCH  50  51
ATOM     51  C   UNL     1      26.769   7.896  17.494  1.00  0.00    -0.012 C 
BRANCH  51  52
ATOM     52  C   UNL     1      26.297   8.036  16.054  1.00  0.00    -0.018 C 
ATOM     53  C   UNL     1      27.101   8.933  15.161  1.00  0.00     0.033 C 
ATOM     54  C   UNL     1      26.341   6.788  15.285  1.00  0.00     0.033 C 
ATOM     55  C   UNL     1      24.906   8.613  15.907  1.00  0.00     0.033 C 
ATOM     56  C   UNL     1      26.509   9.157  13.806  1.00  0.00     0.101 C 
ATOM     57  C   UNL     1      25.865   6.916  13.821  1.00  0.00     0.101 C 
ATOM     58  C   UNL     1      24.305   8.472  14.532  1.00  0.00     0.101 C 
ATOM     59  C   UNL     1      26.704   7.845  13.021  1.00  0.00     0.051 C 
ATOM     60  C   UNL     1      25.095   9.454  13.628  1.00  0.00     0.051 C 
ATOM     61  C   UNL     1      24.410   7.153  13.880  1.00  0.00     0.051 C 
BRANCH  56  62
ATOM     62  S   UNL     1      27.487  10.373  12.947  1.00  0.00     0.270 S 
ATOM     63  O   UNL     1      27.514  11.676  13.710  1.00  0.00    -0.199 OA
ATOM     64  O   UNL     1      26.912  10.566  11.570  1.00  0.00    -0.199 OA
BRANCH  62  65
ATOM     65  O   UNL     1      29.048   9.776  12.795  1.00  0.00    -0.285 OA
ATOM     66  H   UNL     1      29.133   9.029  12.151  1.00  0.00     0.234 HD
ENDBRANCH  62  65
ENDBRANCH  56  62
BRANCH  57  67
ATOM     67  S   UNL     1      26.118   5.302  13.077  1.00  0.00     0.270 S 
ATOM     68  O   UNL     1      25.862   5.385  11.584  1.00  0.00    -0.199 OA
ATOM     69  O   UNL     1      25.205   4.287  13.695  1.00  0.00    -0.199 OA
BRANCH  67  70
ATOM     70  O   UNL     1      27.695   4.787  13.276  1.00  0.00    -0.285 OA
ATOM     71  H   UNL     1      28.252   5.440  13.726  1.00  0.00     0.234 HD
ENDBRANCH  67  70
ENDBRANCH  57  67
BRANCH  58  72
ATOM     72  S   UNL     1      22.639   9.072  14.566  1.00  0.00     0.270 S 
ATOM     73  O   UNL     1      22.031   8.798  13.204  1.00  0.00    -0.199 OA
ATOM     74  O   UNL     1      22.684  10.555  14.808  1.00  0.00    -0.199 OA
BRANCH  72  75
ATOM     75  O   UNL     1      21.719   8.289  15.715  1.00  0.00    -0.285 OA
ATOM     76  H   UNL     1      21.746   7.313  15.606  1.00  0.00     0.234 HD
ENDBRANCH  72  75
ENDBRANCH  58  72
ENDBRANCH  51  52
BRANCH  51  77
ATOM     77  C   UNL     1      28.266   7.697  17.652  1.00  0.00    -0.018 C 
ATOM     78  C   UNL     1      29.073   8.792  16.996  1.00  0.00     0.033 C 
ATOM     79  C   UNL     1      28.781   6.347  17.263  1.00  0.00     0.033 C 
ATOM     80  C   UNL     1      28.872   7.756  18.995  1.00  0.00     0.033 C 
ATOM     81  C   UNL     1      30.555   8.585  16.946  1.00  0.00     0.101 C 
ATOM     82  C   UNL     1      30.297   6.281  17.068  1.00  0.00     0.101 C 
ATOM     83  C   UNL     1      30.414   7.607  18.987  1.00  0.00     0.101 C 
ATOM     84  C   UNL     1      30.868   7.337  16.218  1.00  0.00     0.051 C 
ATOM     85  C   UNL     1      31.117   8.726  18.325  1.00  0.00     0.051 C 
ATOM     86  C   UNL     1      30.905   6.334  18.468  1.00  0.00     0.051 C 
BRANCH  81  87
ATOM     87  S   UNL     1      31.346   9.923  16.048  1.00  0.00     0.270 S 
ATOM     88  O   UNL     1      32.251  10.715  16.924  1.00  0.00    -0.199 OA
ATOM     89  O   UNL     1      32.160   9.309  14.937  1.00  0.00    -0.199 OA
BRANCH  87  90
ATOM     90  O   UNL     1      30.162  10.864  15.331  1.00  0.00    -0.285 OA
ATOM     91  H   UNL     1      30.638  11.645  14.914  1.00  0.00     0.234 HD
ENDBRANCH  87  90
ENDBRANCH  81  87
BRANCH  82  92
ATOM     92  S   UNL     1      30.790   4.707  16.409  1.00  0.00     0.270 S 
ATOM     93  O   UNL     1      31.263   3.762  17.444  1.00  0.00    -0.199 OA
ATOM     94  O   UNL     1      31.805   4.965  15.346  1.00  0.00    -0.199 OA
BRANCH  92  95
ATOM     95  O   UNL     1      29.413   4.053  15.658  1.00  0.00    -0.285 OA
ATOM     96  H   UNL     1      29.370   3.076  15.841  1.00  0.00     0.234 HD
ENDBRANCH  92  95
ENDBRANCH  82  92
BRANCH  83  97
ATOM     97  S   UNL     1      30.897   7.715  20.723  1.00  0.00     0.270 S 
ATOM     98  O   UNL     1      32.066   8.604  20.925  1.00  0.00    -0.199 OA
ATOM     99  O   UNL     1      29.767   8.278  21.551  1.00  0.00    -0.199 OA
BRANCH  97 100
ATOM    100  O   UNL     1      31.234   6.190  21.313  1.00  0.00    -0.285 OA
ATOM    101  H   UNL     1      32.169   5.918  21.124  1.00  0.00     0.234 HD
ENDBRANCH  97 100
ENDBRANCH  83  97
ENDBRANCH  51  77
BRANCH  51 102
ATOM    102  C   UNL     1      26.096   8.954  18.345  1.00  0.00    -0.018 C 
ATOM    103  C   UNL     1      26.595  10.330  18.358  1.00  0.00     0.033 C 
ATOM    104  C   UNL     1      24.600   8.840  18.370  1.00  0.00     0.033 C 
ATOM    105  C   UNL     1      26.278   8.633  19.865  1.00  0.00     0.033 C 
ATOM    106  C   UNL     1      25.708  11.329  19.143  1.00  0.00     0.101 C 
ATOM    107  C   UNL     1      23.884   9.896  19.167  1.00  0.00     0.101 C 
ATOM    108  C   UNL     1      25.584   9.661  20.757  1.00  0.00     0.101 C 
ATOM    109  C   UNL     1      24.290  11.255  18.748  1.00  0.00     0.051 C 
ATOM    110  C   UNL     1      25.997  11.055  20.601  1.00  0.00     0.051 C 
ATOM    111  C   UNL     1      24.078   9.629  20.649  1.00  0.00     0.051 C 
BRANCH 106 112
ATOM    112  S   UNL     1      26.303  12.989  18.859  1.00  0.00     0.270 S 
ATOM    113  O   UNL     1      25.338  13.664  17.940  1.00  0.00    -0.199 OA
ATOM    114  O   UNL     1      27.642  12.919  18.140  1.00  0.00    -0.199 OA
BRANCH 112 115
ATOM    115  O   UNL     1      26.500  13.816  20.292  1.00  0.00    -0.285 OA
ATOM    116  H   UNL     1      25.671  14.283  20.519  1.00  0.00     0.234 HD
ENDBRANCH 112 115
ENDBRANCH 106 112
BRANCH 107 117
ATOM    117  S   UNL     1      22.138   9.690  18.882  1.00  0.00     0.270 S 
ATOM    118  O   UNL     1      21.446  10.162  20.154  1.00  0.00    -0.199 OA
ATOM    119  O   UNL     1      21.771   8.286  18.632  1.00  0.00    -0.199 OA
BRANCH 117 120
ATOM    120  O   UNL     1      21.641  10.744  17.676  1.00  0.00    -0.285 OA
ATOM    121  H   UNL     1      21.126  10.220  17.019  1.00  0.00     0.234 HD
ENDBRANCH 117 120
ENDBRANCH 107 117
BRANCH 108 122
ATOM    122  S   UNL     1      25.954   9.153  22.434  1.00  0.00     0.270 S 
ATOM    123  O   UNL     1      25.203  10.083  23.329  1.00  0.00    -0.199 OA
ATOM    124  O   UNL     1      25.573   7.722  22.644  1.00  0.00    -0.199 OA
BRANCH 122 125
ATOM    125  O   UNL     1      27.593   9.418  22.675  1.00  0.00    -0.285 OA
ATOM    126  H   UNL     1      27.694   9.797  23.588  1.00  0.00     0.234 HD
ENDBRANCH 122 125
ENDBRANCH 108 122
ENDBRANCH  51 102
ENDBRANCH  50  51
ENDBRANCH  49  50
ENDBRANCH  48  49
ENDBRANCH  47  48
ENDBRANCH  46  47
ENDBRANCH  45  46
ENDBRANCH  44  45
ENDBRANCH  43  44
ENDBRANCH   1  43
TORSDOF 43
ENDMDL
MODEL 4
REMARK VINA RESULT:   -10.177      0.678      3.274
REMARK INTER + INTRA:         -41.914
REMARK INTER:                 -33.292
REMARK INTRA:                  -8.622
REMARK UNBOUND:                -8.830
REMARK SMILES NC(=O)c1ccccc1OCc1cccc(C(=O)NC[C@@H](NC(=O)c2ncc[nH]2)C(=O)NCCCCCCCCCCCC([C@]23C[C@]4(S(=O)(=O)O)C[C@](S(=O)(=O)O)(C2)C[C@](S(=O)(=O)O)(C3)C4)([C@]23C[C@]4(S(=O)(=O)O)C[C@](S(=O)(=O)O)(C2)C[C@](S(=O)(=O)O)(C3)C4)[C@]23C[C@]4(S(=O)(=O)O)C[C@](S(=O)(=O)O)(C2)C[C@](S(=O)(=O)O)(C3)C4)c1
REMARK SMILES IDX 35 1 34 2 33 3 32 4 30 5 31 6 21 8 20 9 19 10 18 11 17 12
REMARK SMILES IDX 16 14 15 15 111 16 14 17 12 18 13 19 11 20 10 21 9 22 4 23
REMARK SMILES IDX 8 24 5 25 7 26 6 27 2 28 1 29 3 30 22 33 23 34 24 36 25 37
REMARK SMILES IDX 26 38 29 39 27 40 28 41 36 43 37 44 38 45 39 46 40 47 41 48
REMARK SMILES IDX 42 49 43 50 44 51 67 52 80 53 87 54 68 55 75 56 82 57 69 58
REMARK SMILES IDX 81 59 74 60 88 61 76 62 77 63 78 64 79 65 83 67 84 68 85 69
REMARK SMILES IDX 86 70 70 72 71 73 72 74 73 75 45 77 46 78 58 79 65 80 47 81
REMARK SMILES IDX 53 82 60 83 52 84 66 85 59 86 48 87 49 88 50 89 51 90 54 92
REMARK SMILES IDX 55 93 56 94 57 95 61 97 62 98 63 99 64 100 89 102 102 103
REMARK SMILES IDX 109 104 90 105 97 106 104 107 91 108 103 109 96 110 110 111
REMARK SMILES IDX 98 112 99 113 100 114 101 115 105 117 106 118 107 119
REMARK SMILES IDX 108 120 92 122 93 123 94 124 95 125
REMARK H PARENT 32 7 19 13 1 31 1 32 22 35 29 42 79 66 86 71 73 76 51 91 57 96
REMARK H PARENT 64 101 101 116 108 121 95 126
REMARK Flexibility Score: inf
ROOT
ATOM      1  C   UNL     1      21.813  -2.078  16.083  1.00  0.00     0.002 C 
ENDROOT
BRANCH   1   2
ATOM      2  C   UNL     1      20.702  -2.866  16.679  1.00  0.00     0.021 C 
BRANCH   2   3
ATOM      3  C   UNL     1      20.231  -4.030  15.914  1.00  0.00     0.116 C 
BRANCH   3   4
ATOM      4  N   UNL     1      19.131  -3.946  15.026  1.00  0.00    -0.354 N 
ATOM      5  C   UNL     1      17.766  -4.000  15.358  1.00  0.00     0.244 C 
ATOM      6  O   UNL     1      17.418  -4.204  16.543  1.00  0.00    -0.273 OA
ATOM      7  H   UNL     1      19.344  -3.832  13.992  1.00  0.00     0.163 HD
BRANCH   5   8
ATOM      8  C   UNL     1      16.720  -3.803  14.332  1.00  0.00     0.191 C 
BRANCH   8   9
ATOM      9  C   UNL     1      16.499  -2.390  13.943  1.00  0.00     0.151 C 
BRANCH   9  10
ATOM     10  N   UNL     1      17.728  -1.590  14.006  1.00  0.00    -0.349 N 
ATOM     11  O   UNL     1      16.912  -0.454  15.825  1.00  0.00    -0.269 OA
ATOM     12  C   UNL     1      17.859  -0.601  15.005  1.00  0.00     0.251 C 
ATOM     13  H   UNL     1      18.500  -1.741  13.337  1.00  0.00     0.163 HD
BRANCH  12  14
ATOM     14  C   UNL     1      19.030   0.219  15.093  1.00  0.00     0.040 A 
ATOM     15  C   UNL     1      19.733   0.621  13.974  1.00  0.00     0.014 A 
ATOM     16  C   UNL     1      19.469   0.653  16.328  1.00  0.00     0.021 A 
ATOM     17  C   UNL     1      20.840   1.438  14.128  1.00  0.00     0.001 A 
ATOM     18  C   UNL     1      20.592   1.479  16.478  1.00  0.00    -0.010 A 
ATOM     19  C   UNL     1      21.271   1.866  15.347  1.00  0.00     0.007 A 
BRANCH  18  20
ATOM     20  C   UNL     1      20.974   1.888  17.835  1.00  0.00     0.265 C 
BRANCH  20  21
ATOM     21  O   UNL     1      19.823   2.007  18.646  1.00  0.00    -0.488 OA
BRANCH  21  22
ATOM     22  C   UNL     1      19.999   2.424  19.976  1.00  0.00     0.132 A 
ATOM     23  C   UNL     1      18.890   2.612  20.749  1.00  0.00     0.081 A 
ATOM     24  C   UNL     1      21.254   2.633  20.479  1.00  0.00     0.047 A 
ATOM     25  C   UNL     1      19.024   3.021  22.072  1.00  0.00     0.018 A 
ATOM     26  C   UNL     1      21.384   3.041  21.799  1.00  0.00     0.004 A 
ATOM     27  C   UNL     1      20.285   3.233  22.587  1.00  0.00     0.001 A 
BRANCH  23  28
ATOM     28  C   UNL     1      17.552   2.412  20.186  1.00  0.00     0.252 C 
ATOM     29  N   UNL     1      17.431   2.369  18.776  1.00  0.00    -0.365 N 
ATOM     30  O   UNL     1      16.572   2.288  20.955  1.00  0.00    -0.269 OA
ATOM     31  H   UNL     1      17.436   3.239  18.200  1.00  0.00     0.159 HD
ATOM     32  H   UNL     1      17.330   1.462  18.268  1.00  0.00     0.159 HD
ENDBRANCH  23  28
ENDBRANCH  21  22
ENDBRANCH  20  21
ENDBRANCH  18  20
ENDBRANCH  12  14
ENDBRANCH   9  10
ENDBRANCH   8   9
BRANCH   8  33
ATOM     33  N   UNL     1      16.711  -4.710  13.229  1.00  0.00    -0.336 N 
ATOM     34  C   UNL     1      15.870  -5.824  13.057  1.00  0.00     0.287 C 
ATOM     35  H   UNL     1      17.423  -4.524  12.460  1.00  0.00     0.164 HD
ATOM     36  O   UNL     1      15.036  -6.149  13.923  1.00  0.00    -0.266 OA
BRANCH  34  37
ATOM     37  C   UNL     1      15.959  -6.643  11.822  1.00  0.00     0.196 A 
ATOM     38  N   UNL     1      15.089  -6.700  10.850  1.00  0.00    -0.232 NA
ATOM     39  N   UNL     1      17.041  -7.395  11.496  1.00  0.00    -0.341 N 
ATOM     40  C   UNL     1      15.549  -7.484   9.844  1.00  0.00     0.131 A 
ATOM     41  C   UNL     1      16.808  -7.916  10.292  1.00  0.00     0.104 A 
ATOM     42  H   UNL     1      17.867  -7.513  12.087  1.00  0.00     0.168 HD
ENDBRANCH  34  37
ENDBRANCH   8  33
ENDBRANCH   5   8
ENDBRANCH   3   4
ENDBRANCH   2   3
ENDBRANCH   1   2
BRANCH   1  43
ATOM     43  C   UNL     1      22.617  -1.405  17.196  1.00  0.00     0.000 C 
BRANCH  43  44
ATOM     44  C   UNL     1      23.693  -0.558  16.664  1.00  0.00     0.000 C 
BRANCH  44  45
ATOM     45  C   UNL     1      24.213   0.461  17.724  1.00  0.00     0.000 C 
BRANCH  45  46
ATOM     46  C   UNL     1      24.648   1.678  16.989  1.00  0.00     0.000 C 
BRANCH  46  47
ATOM     47  C   UNL     1      24.680   2.948  17.801  1.00  0.00     0.000 C 
BRANCH  47  48
ATOM     48  C   UNL     1      25.646   3.955  17.208  1.00  0.00     0.000 C 
BRANCH  48  49
ATOM     49  C   UNL     1      25.483   5.330  17.697  1.00  0.00     0.001 C 
BRANCH  49  50
ATOM     50  C   UNL     1      26.109   6.502  17.832  1.00  0.00     0.009 C 
BRANCH  50  51
ATOM     51  C   UNL     1      26.660   7.856  17.396  1.00  0.00    -0.012 C 
BRANCH  51  52
ATOM     52  C   UNL     1      28.170   7.715  17.518  1.00  0.00    -0.018 C 
ATOM     53  C   UNL     1      28.729   7.574  18.903  1.00  0.00     0.033 C 
ATOM     54  C   UNL     1      28.712   6.507  16.889  1.00  0.00     0.033 C 
ATOM     55  C   UNL     1      28.952   8.896  16.984  1.00  0.00     0.033 C 
ATOM     56  C   UNL     1      30.222   7.594  18.978  1.00  0.00     0.101 C 
ATOM     57  C   UNL     1      30.244   6.350  17.006  1.00  0.00     0.101 C 
ATOM     58  C   UNL     1      30.428   8.649  16.810  1.00  0.00     0.101 C 
ATOM     59  C   UNL     1      30.707   6.245  18.414  1.00  0.00     0.051 C 
ATOM     60  C   UNL     1      31.012   8.574  18.246  1.00  0.00     0.051 C 
ATOM     61  C   UNL     1      30.832   7.395  16.146  1.00  0.00     0.051 C 
BRANCH  56  62
ATOM     62  S   UNL     1      30.710   7.595  20.691  1.00  0.00     0.270 S 
ATOM     63  O   UNL     1      29.725   8.375  21.529  1.00  0.00    -0.199 OA
ATOM     64  O   UNL     1      32.092   8.181  20.797  1.00  0.00    -0.199 OA
BRANCH  62  65
ATOM     65  O   UNL     1      30.764   6.003  21.219  1.00  0.00    -0.285 OA
ATOM     66  H   UNL     1      30.117   5.406  20.766  1.00  0.00     0.234 HD
ENDBRANCH  62  65
ENDBRANCH  56  62
BRANCH  57  67
ATOM     67  S   UNL     1      30.637   4.762  16.266  1.00  0.00     0.270 S 
ATOM     68  O   UNL     1      31.120   3.806  17.341  1.00  0.00    -0.199 OA
ATOM     69  O   UNL     1      31.689   4.917  15.211  1.00  0.00    -0.199 OA
BRANCH  67  70
ATOM     70  O   UNL     1      29.284   4.071  15.570  1.00  0.00    -0.285 OA
ATOM     71  H   UNL     1      28.455   4.382  15.964  1.00  0.00     0.234 HD
ENDBRANCH  67  70
ENDBRANCH  57  67
BRANCH  58  72
ATOM     72  S   UNL     1      31.167  10.073  16.058  1.00  0.00     0.270 S 
ATOM     73  O   UNL     1      32.418   9.608  15.338  1.00  0.00    -0.199 OA
ATOM     74  O   UNL     1      31.542  11.034  17.151  1.00  0.00    -0.199 OA
BRANCH  72  75
ATOM     75  O   UNL     1      30.154  10.781  14.938  1.00  0.00    -0.285 OA
ATOM     76  H   UNL     1      30.397  10.540  14.017  1.00  0.00     0.234 HD
ENDBRANCH  72  75
ENDBRANCH  58  72
ENDBRANCH  51  52
BRANCH  51  77
ATOM     77  C   UNL     1      26.030   8.796  18.410  1.00  0.00    -0.018 C 
ATOM     78  C   UNL     1      24.525   8.848  18.300  1.00  0.00     0.033 C 
ATOM     79  C   UNL     1      26.612  10.174  18.460  1.00  0.00     0.033 C 
ATOM     80  C   UNL     1      26.132   8.490  19.849  1.00  0.00     0.033 C 
ATOM     81  C   UNL     1      23.835   9.880  19.138  1.00  0.00     0.101 C 
ATOM     82  C   UNL     1      25.745  11.199  19.193  1.00  0.00     0.101 C 
ATOM     83  C   UNL     1      25.380   9.498  20.753  1.00  0.00     0.101 C 
ATOM     84  C   UNL     1      24.330  11.229  18.790  1.00  0.00     0.051 C 
ATOM     85  C   UNL     1      23.913   9.477  20.576  1.00  0.00     0.051 C 
ATOM     86  C   UNL     1      25.870  10.872  20.680  1.00  0.00     0.051 C 
BRANCH  81  87
ATOM     87  S   UNL     1      22.069   9.875  18.811  1.00  0.00     0.270 S 
ATOM     88  O   UNL     1      21.623   8.587  18.215  1.00  0.00    -0.199 OA
ATOM     89  O   UNL     1      21.361  10.073  20.128  1.00  0.00    -0.199 OA
BRANCH  87  90
ATOM     90  O   UNL     1      21.697  11.191  17.847  1.00  0.00    -0.285 OA
ATOM     91  H   UNL     1      21.110  11.789  18.402  1.00  0.00     0.234 HD
ENDBRANCH  87  90
ENDBRANCH  81  87
BRANCH  82  92
ATOM     92  S   UNL     1      26.409  12.837  19.023  1.00  0.00     0.270 S 
ATOM     93  O   UNL     1      25.405  13.901  19.245  1.00  0.00    -0.199 OA
ATOM     94  O   UNL     1      27.059  12.919  17.682  1.00  0.00    -0.199 OA
BRANCH  92  95
ATOM     95  O   UNL     1      27.630  12.981  20.195  1.00  0.00    -0.285 OA
ATOM     96  H   UNL     1      27.232  13.305  21.048  1.00  0.00     0.234 HD
ENDBRANCH  92  95
ENDBRANCH  82  92
BRANCH  83  97
ATOM     97  S   UNL     1      25.656   8.905  22.435  1.00  0.00     0.270 S 
ATOM     98  O   UNL     1      24.698   9.495  23.401  1.00  0.00    -0.199 OA
ATOM     99  O   UNL     1      25.483   7.407  22.502  1.00  0.00    -0.199 OA
BRANCH  97 100
ATOM    100  O   UNL     1      27.221   9.247  22.907  1.00  0.00    -0.285 OA
ATOM    101  H   UNL     1      27.879   9.017  22.202  1.00  0.00     0.234 HD
ENDBRANCH  97 100
ENDBRANCH  83  97
ENDBRANCH  51  77
BRANCH  51 102
ATOM    102  C   UNL     1      26.291   8.030  15.937  1.00  0.00    -0.018 C 
ATOM    103  C   UNL     1      26.864   9.120  15.146  1.00  0.00     0.033 C 
ATOM    104  C   UNL     1      26.158   6.733  15.194  1.00  0.00     0.033 C 
ATOM    105  C   UNL     1      24.782   8.417  15.795  1.00  0.00     0.033 C 
ATOM    106  C   UNL     1      26.522   9.070  13.636  1.00  0.00     0.101 C 
ATOM    107  C   UNL     1      25.836   6.855  13.730  1.00  0.00     0.101 C 
ATOM    108  C   UNL     1      24.363   8.569  14.334  1.00  0.00     0.101 C 
ATOM    109  C   UNL     1      26.792   7.748  13.040  1.00  0.00     0.051 C 
ATOM    110  C   UNL     1      25.094   9.554  13.537  1.00  0.00     0.051 C 
ATOM    111  C   UNL     1      24.384   7.270  13.565  1.00  0.00     0.051 C 
BRANCH 106 112
ATOM    112  S   UNL     1      27.487  10.301  12.775  1.00  0.00     0.270 S 
ATOM    113  O   UNL     1      28.883   9.782  12.657  1.00  0.00    -0.199 OA
ATOM    114  O   UNL     1      27.543  11.566  13.619  1.00  0.00    -0.199 OA
BRANCH 112 115
ATOM    115  O   UNL     1      26.819  10.668  11.293  1.00  0.00    -0.285 OA
ATOM    116  H   UNL     1      25.980  10.177  11.180  1.00  0.00     0.234 HD
ENDBRANCH 112 115
ENDBRANCH 106 112
BRANCH 107 117
ATOM    117  S   UNL     1      25.938   5.226  13.021  1.00  0.00     0.270 S 
ATOM    118  O   UNL     1      27.053   4.511  13.771  1.00  0.00    -0.199 OA
ATOM    119  O   UNL     1      26.272   5.257  11.587  1.00  0.00    -0.199 OA
BRANCH 117 120
ATOM    120  O   UNL     1      24.537   4.374  13.369  1.00  0.00    -0.285 OA
ATOM    121  H   UNL     1      24.142   4.773  14.180  1.00  0.00     0.234 HD
ENDBRANCH 117 120
ENDBRANCH 107 117
BRANCH 108 122
ATOM    122  S   UNL     1      22.642   9.063  14.388  1.00  0.00     0.270 S 
ATOM    123  O   UNL     1      21.886   7.891  14.922  1.00  0.00    -0.199 OA
ATOM    124  O   UNL     1      22.474  10.287  15.232  1.00  0.00    -0.199 OA
BRANCH 122 125
ATOM    125  O   UNL     1      22.153   9.312  12.802  1.00  0.00    -0.285 OA
ATOM    126  H   UNL     1      21.592   8.533  12.547  1.00  0.00     0.234 HD
ENDBRANCH 122 125
ENDBRANCH 108 122
ENDBRANCH  51 102
ENDBRANCH  50  51
ENDBRANCH  49  50
ENDBRANCH  48  49
ENDBRANCH  47  48
ENDBRANCH  46  47
ENDBRANCH  45  46
ENDBRANCH  44  45
ENDBRANCH  43  44
ENDBRANCH   1  43
TORSDOF 43
ENDMDL
MODEL 5
REMARK VINA RESULT:   -10.172      0.692      3.074
REMARK INTER + INTRA:         -41.897
REMARK INTER:                 -33.353
REMARK INTRA:                  -8.544
REMARK UNBOUND:                -8.830
REMARK SMILES NC(=O)c1ccccc1OCc1cccc(C(=O)NC[C@@H](NC(=O)c2ncc[nH]2)C(=O)NCCCCCCCCCCCC([C@]23C[C@]4(S(=O)(=O)O)C[C@](S(=O)(=O)O)(C2)C[C@](S(=O)(=O)O)(C3)C4)([C@]23C[C@]4(S(=O)(=O)O)C[C@](S(=O)(=O)O)(C2)C[C@](S(=O)(=O)O)(C3)C4)[C@]23C[C@]4(S(=O)(=O)O)C[C@](S(=O)(=O)O)(C2)C[C@](S(=O)(=O)O)(C3)C4)c1
REMARK SMILES IDX 35 1 34 2 33 3 32 4 30 5 31 6 21 8 20 9 19 10 18 11 17 12
REMARK SMILES IDX 16 14 15 15 111 16 14 17 12 18 13 19 11 20 10 21 9 22 4 23
REMARK SMILES IDX 8 24 5 25 7 26 6 27 2 28 1 29 3 30 22 33 23 34 24 36 25 37
REMARK SMILES IDX 26 38 29 39 27 40 28 41 36 43 37 44 38 45 39 46 40 47 41 48
REMARK SMILES IDX 42 49 43 50 44 51 67 52 80 53 87 54 68 55 75 56 82 57 69 58
REMARK SMILES IDX 81 59 74 60 88 61 76 62 77 63 78 64 79 65 83 67 84 68 85 69
REMARK SMILES IDX 86 70 70 72 71 73 72 74 73 75 45 77 46 78 58 79 65 80 47 81
REMARK SMILES IDX 53 82 60 83 52 84 66 85 59 86 48 87 49 88 50 89 51 90 54 92
REMARK SMILES IDX 55 93 56 94 57 95 61 97 62 98 63 99 64 100 89 102 102 103
REMARK SMILES IDX 109 104 90 105 97 106 104 107 91 108 103 109 96 110 110 111
REMARK SMILES IDX 98 112 99 113 100 114 101 115 105 117 106 118 107 119
REMARK SMILES IDX 108 120 92 122 93 123 94 124 95 125
REMARK H PARENT 32 7 19 13 1 31 1 32 22 35 29 42 79 66 86 71 73 76 51 91 57 96
REMARK H PARENT 64 101 101 116 108 121 95 126
REMARK Flexibility Score: inf
ROOT
ATOM      1  C   UNL     1      21.725  -2.121  16.056  1.00  0.00     0.002 C 
ENDROOT
BRANCH   1   2
ATOM      2  C   UNL     1      20.485  -2.729  16.608  1.00  0.00     0.021 C 
BRANCH   2   3
ATOM      3  C   UNL     1      19.946  -3.897  15.897  1.00  0.00     0.116 C 
BRANCH   3   4
ATOM      4  N   UNL     1      18.886  -3.782  14.965  1.00  0.00    -0.354 N 
ATOM      5  C   UNL     1      17.510  -3.725  15.248  1.00  0.00     0.244 C 
ATOM      6  O   UNL     1      17.108  -3.845  16.428  1.00  0.00    -0.273 OA
ATOM      7  H   UNL     1      19.141  -3.734  13.936  1.00  0.00     0.163 HD
BRANCH   5   8
ATOM      8  C   UNL     1      16.515  -3.507  14.176  1.00  0.00     0.191 C 
BRANCH   8   9
ATOM      9  C   UNL     1      16.386  -2.099  13.734  1.00  0.00     0.151 C 
BRANCH   9  10
ATOM     10  N   UNL     1      17.648  -1.357  13.843  1.00  0.00    -0.349 N 
ATOM     11  O   UNL     1      16.847  -0.236  15.679  1.00  0.00    -0.269 OA
ATOM     12  C   UNL     1      17.803  -0.403  14.872  1.00  0.00     0.251 C 
ATOM     13  H   UNL     1      18.426  -1.524  13.184  1.00  0.00     0.163 HD
BRANCH  12  14
ATOM     14  C   UNL     1      19.007   0.361  15.005  1.00  0.00     0.040 A 
ATOM     15  C   UNL     1      19.743   0.773  13.911  1.00  0.00     0.014 A 
ATOM     16  C   UNL     1      19.448   0.728  16.261  1.00  0.00     0.021 A 
ATOM     17  C   UNL     1      20.882   1.534  14.109  1.00  0.00     0.001 A 
ATOM     18  C   UNL     1      20.603   1.499  16.456  1.00  0.00    -0.010 A 
ATOM     19  C   UNL     1      21.315   1.897  15.349  1.00  0.00     0.007 A 
BRANCH  18  20
ATOM     20  C   UNL     1      20.984   1.840  17.832  1.00  0.00     0.265 C 
BRANCH  20  21
ATOM     21  O   UNL     1      19.829   1.967  18.636  1.00  0.00    -0.488 OA
BRANCH  21  22
ATOM     22  C   UNL     1      19.995   2.422  19.954  1.00  0.00     0.132 A 
ATOM     23  C   UNL     1      18.881   2.645  20.709  1.00  0.00     0.081 A 
ATOM     24  C   UNL     1      21.247   2.633  20.465  1.00  0.00     0.047 A 
ATOM     25  C   UNL     1      19.004   3.093  22.021  1.00  0.00     0.018 A 
ATOM     26  C   UNL     1      21.367   3.078  21.774  1.00  0.00     0.004 A 
ATOM     27  C   UNL     1      20.262   3.306  22.543  1.00  0.00     0.001 A 
BRANCH  23  28
ATOM     28  C   UNL     1      17.546   2.443  20.137  1.00  0.00     0.252 C 
ATOM     29  N   UNL     1      17.437   2.380  18.727  1.00  0.00    -0.365 N 
ATOM     30  O   UNL     1      16.559   2.334  20.899  1.00  0.00    -0.269 OA
ATOM     31  H   UNL     1      17.451   3.242  18.138  1.00  0.00     0.159 HD
ATOM     32  H   UNL     1      17.336   1.466  18.231  1.00  0.00     0.159 HD
ENDBRANCH  23  28
ENDBRANCH  21  22
ENDBRANCH  20  21
ENDBRANCH  18  20
ENDBRANCH  12  14
ENDBRANCH   9  10
ENDBRANCH   8   9
BRANCH   8  33
ATOM     33  N   UNL     1      16.499  -4.450  13.103  1.00  0.00    -0.336 N 
ATOM     34  C   UNL     1      15.732  -5.626  13.021  1.00  0.00     0.287 C 
ATOM     35  H   UNL     1      17.142  -4.239  12.281  1.00  0.00     0.164 HD
ATOM     36  O   UNL     1      14.985  -5.980  13.952  1.00  0.00    -0.266 OA
BRANCH  34  37
ATOM     37  C   UNL     1      15.798  -6.477  11.807  1.00  0.00     0.196 A 
ATOM     38  N   UNL     1      16.478  -7.580  11.655  1.00  0.00    -0.232 NA
ATOM     39  N   UNL     1      15.057  -6.253  10.692  1.00  0.00    -0.341 N 
ATOM     40  C   UNL     1      16.224  -8.134  10.445  1.00  0.00     0.131 A 
ATOM     41  C   UNL     1      15.305  -7.255   9.849  1.00  0.00     0.104 A 
ATOM     42  H   UNL     1      14.432  -5.455  10.560  1.00  0.00     0.168 HD
ENDBRANCH  34  37
ENDBRANCH   8  33
ENDBRANCH   5   8
ENDBRANCH   3   4
ENDBRANCH   2   3
ENDBRANCH   1   2
BRANCH   1  43
ATOM     43  C   UNL     1      22.513  -1.454  17.183  1.00  0.00     0.000 C 
BRANCH  43  44
ATOM     44  C   UNL     1      23.636  -0.656  16.673  1.00  0.00     0.000 C 
BRANCH  44  45
ATOM     45  C   UNL     1      24.235   0.277  17.770  1.00  0.00     0.000 C 
BRANCH  45  46
ATOM     46  C   UNL     1      24.554   1.575  17.119  1.00  0.00     0.000 C 
BRANCH  46  47
ATOM     47  C   UNL     1      24.862   2.713  18.059  1.00  0.00     0.000 C 
BRANCH  47  48
ATOM     48  C   UNL     1      25.440   3.900  17.313  1.00  0.00     0.000 C 
BRANCH  48  49
ATOM     49  C   UNL     1      25.498   5.147  18.087  1.00  0.00     0.001 C 
BRANCH  49  50
ATOM     50  C   UNL     1      26.012   6.380  18.098  1.00  0.00     0.009 C 
BRANCH  50  51
ATOM     51  C   UNL     1      26.492   7.704  17.513  1.00  0.00    -0.012 C 
BRANCH  51  52
ATOM     52  C   UNL     1      28.011   7.618  17.561  1.00  0.00    -0.018 C 
ATOM     53  C   UNL     1      28.648   6.460  16.853  1.00  0.00     0.033 C 
ATOM     54  C   UNL     1      28.696   8.737  16.908  1.00  0.00     0.033 C 
ATOM     55  C   UNL     1      28.583   7.485  18.956  1.00  0.00     0.033 C 
ATOM     56  C   UNL     1      30.123   6.335  17.061  1.00  0.00     0.101 C 
ATOM     57  C   UNL     1      30.238   8.662  16.949  1.00  0.00     0.101 C 
ATOM     58  C   UNL     1      30.070   7.709  19.053  1.00  0.00     0.101 C 
ATOM     59  C   UNL     1      30.776   7.469  16.246  1.00  0.00     0.051 C 
ATOM     60  C   UNL     1      30.724   6.473  18.379  1.00  0.00     0.051 C 
ATOM     61  C   UNL     1      30.624   8.885  18.356  1.00  0.00     0.051 C 
BRANCH  56  62
ATOM     62  S   UNL     1      30.684   4.824  16.305  1.00  0.00     0.270 S 
ATOM     63  O   UNL     1      31.186   3.855  17.349  1.00  0.00    -0.199 OA
ATOM     64  O   UNL     1      31.766   5.155  15.313  1.00  0.00    -0.199 OA
BRANCH  62  65
ATOM     65  O   UNL     1      29.392   4.142  15.478  1.00  0.00    -0.285 OA
ATOM     66  H   UNL     1      28.990   3.360  15.933  1.00  0.00     0.234 HD
ENDBRANCH  62  65
ENDBRANCH  56  62
BRANCH  57  67
ATOM     67  S   UNL     1      30.828  10.067  16.001  1.00  0.00     0.270 S 
ATOM     68  O   UNL     1      32.047  10.663  16.679  1.00  0.00    -0.199 OA
ATOM     69  O   UNL     1      29.755  11.106  15.875  1.00  0.00    -0.199 OA
BRANCH  67  70
ATOM     70  O   UNL     1      31.299   9.603  14.466  1.00  0.00    -0.285 OA
ATOM     71  H   UNL     1      30.804  10.054  13.765  1.00  0.00     0.234 HD
ENDBRANCH  67  70
ENDBRANCH  57  67
BRANCH  58  72
ATOM     72  S   UNL     1      30.554   7.650  20.755  1.00  0.00     0.270 S 
ATOM     73  O   UNL     1      30.320   6.233  21.245  1.00  0.00    -0.199 OA
ATOM     74  O   UNL     1      29.674   8.599  21.521  1.00  0.00    -0.199 OA
BRANCH  72  75
ATOM     75  O   UNL     1      32.169   8.012  20.956  1.00  0.00    -0.285 OA
ATOM     76  H   UNL     1      32.560   7.537  21.723  1.00  0.00     0.234 HD
ENDBRANCH  72  75
ENDBRANCH  58  72
ENDBRANCH  51  52
BRANCH  51  77
ATOM     77  C   UNL     1      25.887   8.712  18.474  1.00  0.00    -0.018 C 
ATOM     78  C   UNL     1      26.452  10.102  18.296  1.00  0.00     0.033 C 
ATOM     79  C   UNL     1      25.894   8.313  19.916  1.00  0.00     0.033 C 
ATOM     80  C   UNL     1      24.454   9.048  18.373  1.00  0.00     0.033 C 
ATOM     81  C   UNL     1      26.046  11.119  19.317  1.00  0.00     0.101 C 
ATOM     82  C   UNL     1      25.638   9.463  20.892  1.00  0.00     0.101 C 
ATOM     83  C   UNL     1      24.001  10.142  19.370  1.00  0.00     0.101 C 
ATOM     84  C   UNL     1      26.448  10.670  20.667  1.00  0.00     0.051 C 
ATOM     85  C   UNL     1      24.605  11.466  19.117  1.00  0.00     0.051 C 
ATOM     86  C   UNL     1      24.150   9.789  20.779  1.00  0.00     0.051 C 
BRANCH  81  87
ATOM     87  S   UNL     1      26.884  12.678  19.017  1.00  0.00     0.270 S 
ATOM     88  O   UNL     1      25.930  13.748  18.617  1.00  0.00    -0.199 OA
ATOM     89  O   UNL     1      27.563  13.086  20.300  1.00  0.00    -0.199 OA
BRANCH  87  90
ATOM     90  O   UNL     1      28.086  12.433  17.878  1.00  0.00    -0.285 OA
ATOM     91  H   UNL     1      28.949  12.700  18.318  1.00  0.00     0.234 HD
ENDBRANCH  87  90
ENDBRANCH  81  87
BRANCH  82  92
ATOM     92  S   UNL     1      25.871   8.940  22.573  1.00  0.00     0.270 S 
ATOM     93  O   UNL     1      25.669   7.487  22.767  1.00  0.00    -0.199 OA
ATOM     94  O   UNL     1      24.976   9.773  23.429  1.00  0.00    -0.199 OA
BRANCH  92  95
ATOM     95  O   UNL     1      27.475   9.329  22.976  1.00  0.00    -0.285 OA
ATOM     96  H   UNL     1      28.025   9.361  22.146  1.00  0.00     0.234 HD
ENDBRANCH  92  95
ENDBRANCH  82  92
BRANCH  83  97
ATOM     97  S   UNL     1      22.239  10.363  19.044  1.00  0.00     0.270 S 
ATOM     98  O   UNL     1      21.420  10.224  20.272  1.00  0.00    -0.199 OA
ATOM     99  O   UNL     1      21.974  11.743  18.492  1.00  0.00    -0.199 OA
BRANCH  97 100
ATOM    100  O   UNL     1      21.733   9.263  17.895  1.00  0.00    -0.285 OA
ATOM    101  H   UNL     1      21.660   8.346  18.267  1.00  0.00     0.234 HD
ENDBRANCH  97 100
ENDBRANCH  83  97
ENDBRANCH  51  77
BRANCH  51 102
ATOM    102  C   UNL     1      26.039   7.735  16.067  1.00  0.00    -0.018 C 
ATOM    103  C   UNL     1      26.248   6.579  15.195  1.00  0.00     0.033 C 
ATOM    104  C   UNL     1      24.724   8.430  15.867  1.00  0.00     0.033 C 
ATOM    105  C   UNL     1      26.867   8.784  15.255  1.00  0.00     0.033 C 
ATOM    106  C   UNL     1      25.586   6.698  13.799  1.00  0.00     0.101 C 
ATOM    107  C   UNL     1      24.211   8.448  14.453  1.00  0.00     0.101 C 
ATOM    108  C   UNL     1      26.416   8.869  13.798  1.00  0.00     0.101 C 
ATOM    109  C   UNL     1      24.166   7.085  13.879  1.00  0.00     0.051 C 
ATOM    110  C   UNL     1      26.478   7.634  13.016  1.00  0.00     0.051 C 
ATOM    111  C   UNL     1      25.025   9.432  13.632  1.00  0.00     0.051 C 
BRANCH 106 112
ATOM    112  S   UNL     1      25.712   5.129  12.956  1.00  0.00     0.270 S 
ATOM    113  O   UNL     1      27.163   4.807  12.810  1.00  0.00    -0.199 OA
ATOM    114  O   UNL     1      25.135   5.271  11.554  1.00  0.00    -0.199 OA
BRANCH 112 115
ATOM    115  O   UNL     1      24.875   3.937  13.766  1.00  0.00    -0.285 OA
ATOM    116  H   UNL     1      25.465   3.173  13.927  1.00  0.00     0.234 HD
ENDBRANCH 112 115
ENDBRANCH 106 112
BRANCH 107 117
ATOM    117  S   UNL     1      22.564   9.123  14.490  1.00  0.00     0.270 S 
ATOM    118  O   UNL     1      21.725   8.141  15.297  1.00  0.00    -0.199 OA
ATOM    119  O   UNL     1      21.980   9.256  13.144  1.00  0.00    -0.199 OA
BRANCH 117 120
ATOM    120  O   UNL     1      22.564  10.550  15.370  1.00  0.00    -0.285 OA
ATOM    121  H   UNL     1      23.288  11.117  15.015  1.00  0.00     0.234 HD
ENDBRANCH 117 120
ENDBRANCH 107 117
BRANCH 108 122
ATOM    122  S   UNL     1      27.509  10.066  13.036  1.00  0.00     0.270 S 
ATOM    123  O   UNL     1      28.854   9.421  12.966  1.00  0.00    -0.199 OA
ATOM    124  O   UNL     1      26.993  10.466  11.690  1.00  0.00    -0.199 OA
BRANCH 122 125
ATOM    125  O   UNL     1      27.618  11.369  14.089  1.00  0.00    -0.285 OA
ATOM    126  H   UNL     1      27.996  12.128  13.571  1.00  0.00     0.234 HD
ENDBRANCH 122 125
ENDBRANCH 108 122
ENDBRANCH  51 102
ENDBRANCH  50  51
ENDBRANCH  49  50
ENDBRANCH  48  49
ENDBRANCH  47  48
ENDBRANCH  46  47
ENDBRANCH  45  46
ENDBRANCH  44  45
ENDBRANCH  43  44
ENDBRANCH   1  43
TORSDOF 43
ENDMDL
MODEL 6
REMARK VINA RESULT:   -10.134      0.706      5.947
REMARK INTER + INTRA:         -41.772
REMARK INTER:                 -33.377
REMARK INTRA:                  -8.395
REMARK UNBOUND:                -8.830
REMARK SMILES NC(=O)c1ccccc1OCc1cccc(C(=O)NC[C@@H](NC(=O)c2ncc[nH]2)C(=O)NCCCCCCCCCCCC([C@]23C[C@]4(S(=O)(=O)O)C[C@](S(=O)(=O)O)(C2)C[C@](S(=O)(=O)O)(C3)C4)([C@]23C[C@]4(S(=O)(=O)O)C[C@](S(=O)(=O)O)(C2)C[C@](S(=O)(=O)O)(C3)C4)[C@]23C[C@]4(S(=O)(=O)O)C[C@](S(=O)(=O)O)(C2)C[C@](S(=O)(=O)O)(C3)C4)c1
REMARK SMILES IDX 35 1 34 2 33 3 32 4 30 5 31 6 21 8 20 9 19 10 18 11 17 12
REMARK SMILES IDX 16 14 15 15 111 16 14 17 12 18 13 19 11 20 10 21 9 22 4 23
REMARK SMILES IDX 8 24 5 25 7 26 6 27 2 28 1 29 3 30 22 33 23 34 24 36 25 37
REMARK SMILES IDX 26 38 29 39 27 40 28 41 36 43 37 44 38 45 39 46 40 47 41 48
REMARK SMILES IDX 42 49 43 50 44 51 67 52 80 53 87 54 68 55 75 56 82 57 69 58
REMARK SMILES IDX 81 59 74 60 88 61 76 62 77 63 78 64 79 65 83 67 84 68 85 69
REMARK SMILES IDX 86 70 70 72 71 73 72 74 73 75 45 77 46 78 58 79 65 80 47 81
REMARK SMILES IDX 53 82 60 83 52 84 66 85 59 86 48 87 49 88 50 89 51 90 54 92
REMARK SMILES IDX 55 93 56 94 57 95 61 97 62 98 63 99 64 100 89 102 102 103
REMARK SMILES IDX 109 104 90 105 97 106 104 107 91 108 103 109 96 110 110 111
REMARK SMILES IDX 98 112 99 113 100 114 101 115 105 117 106 118 107 119
REMARK SMILES IDX 108 120 92 122 93 123 94 124 95 125
REMARK H PARENT 32 7 19 13 1 31 1 32 22 35 29 42 79 66 86 71 73 76 51 91 57 96
REMARK H PARENT 64 101 101 116 108 121 95 126
REMARK Flexibility Score: inf
ROOT
ATOM      1  C   UNL     1      21.636  -2.060  16.020  1.00  0.00     0.002 C 
ENDROOT
BRANCH   1   2
ATOM      2  C   UNL     1      20.520  -2.815  16.649  1.00  0.00     0.021 C 
BRANCH   2   3
ATOM      3  C   UNL     1      19.992  -3.963  15.900  1.00  0.00     0.116 C 
BRANCH   3   4
ATOM      4  N   UNL     1      18.932  -3.827  14.971  1.00  0.00    -0.354 N 
ATOM      5  C   UNL     1      17.555  -3.793  15.253  1.00  0.00     0.244 C 
ATOM      6  O   UNL     1      17.152  -3.956  16.428  1.00  0.00    -0.273 OA
ATOM      7  H   UNL     1      19.187  -3.743  13.944  1.00  0.00     0.163 HD
BRANCH   5   8
ATOM      8  C   UNL     1      16.560  -3.549  14.188  1.00  0.00     0.191 C 
BRANCH   8   9
ATOM      9  C   UNL     1      16.407  -2.126  13.802  1.00  0.00     0.151 C 
BRANCH   9  10
ATOM     10  N   UNL     1      17.667  -1.379  13.901  1.00  0.00    -0.349 N 
ATOM     11  O   UNL     1      16.864  -0.239  15.724  1.00  0.00    -0.269 OA
ATOM     12  C   UNL     1      17.820  -0.412  14.919  1.00  0.00     0.251 C 
ATOM     13  H   UNL     1      18.445  -1.551  13.243  1.00  0.00     0.163 HD
BRANCH  12  14
ATOM     14  C   UNL     1      19.021   0.357  15.041  1.00  0.00     0.040 A 
ATOM     15  C   UNL     1      19.761   0.748  13.942  1.00  0.00     0.014 A 
ATOM     16  C   UNL     1      19.455   0.752  16.292  1.00  0.00     0.021 A 
ATOM     17  C   UNL     1      20.898   1.516  14.130  1.00  0.00     0.001 A 
ATOM     18  C   UNL     1      20.608   1.529  16.475  1.00  0.00    -0.010 A 
ATOM     19  C   UNL     1      21.323   1.906  15.364  1.00  0.00     0.007 A 
BRANCH  18  20
ATOM     20  C   UNL     1      20.981   1.900  17.847  1.00  0.00     0.265 C 
BRANCH  20  21
ATOM     21  O   UNL     1      19.829   1.959  18.661  1.00  0.00    -0.488 OA
BRANCH  21  22
ATOM     22  C   UNL     1      19.981   2.423  19.979  1.00  0.00     0.132 A 
ATOM     23  C   UNL     1      18.860   2.630  20.728  1.00  0.00     0.081 A 
ATOM     24  C   UNL     1      21.227   2.658  20.494  1.00  0.00     0.047 A 
ATOM     25  C   UNL     1      18.971   3.085  22.038  1.00  0.00     0.018 A 
ATOM     26  C   UNL     1      21.335   3.111  21.801  1.00  0.00     0.004 A 
ATOM     27  C   UNL     1      20.222   3.323  22.565  1.00  0.00     0.001 A 
BRANCH  23  28
ATOM     28  C   UNL     1      17.532   2.403  20.152  1.00  0.00     0.252 C 
ATOM     29  N   UNL     1      17.432   2.315  18.743  1.00  0.00    -0.365 N 
ATOM     30  O   UNL     1      16.542   2.295  20.910  1.00  0.00    -0.269 OA
ATOM     31  H   UNL     1      17.440   3.167  18.139  1.00  0.00     0.159 HD
ATOM     32  H   UNL     1      17.345   1.392  18.261  1.00  0.00     0.159 HD
ENDBRANCH  23  28
ENDBRANCH  21  22
ENDBRANCH  20  21
ENDBRANCH  18  20
ENDBRANCH  12  14
ENDBRANCH   9  10
ENDBRANCH   8   9
BRANCH   8  33
ATOM     33  N   UNL     1      16.562  -4.447  13.077  1.00  0.00    -0.336 N 
ATOM     34  C   UNL     1      15.804  -5.623  12.938  1.00  0.00     0.287 C 
ATOM     35  H   UNL     1      17.215  -4.200  12.273  1.00  0.00     0.164 HD
ATOM     36  O   UNL     1      15.047  -6.018  13.845  1.00  0.00    -0.266 OA
BRANCH  34  37
ATOM     37  C   UNL     1      15.890  -6.425  11.692  1.00  0.00     0.196 A 
ATOM     38  N   UNL     1      16.744  -7.374  11.424  1.00  0.00    -0.232 NA
ATOM     39  N   UNL     1      14.998  -6.327  10.674  1.00  0.00    -0.341 N 
ATOM     40  C   UNL     1      16.462  -7.945  10.227  1.00  0.00     0.131 A 
ATOM     41  C   UNL     1      15.332  -7.248   9.770  1.00  0.00     0.104 A 
ATOM     42  H   UNL     1      14.222  -5.662  10.641  1.00  0.00     0.168 HD
ENDBRANCH  34  37
ENDBRANCH   8  33
ENDBRANCH   5   8
ENDBRANCH   3   4
ENDBRANCH   2   3
ENDBRANCH   1   2
BRANCH   1  43
ATOM     43  C   UNL     1      22.558  -1.509  17.107  1.00  0.00     0.000 C 
BRANCH  43  44
ATOM     44  C   UNL     1      23.638  -0.685  16.548  1.00  0.00     0.000 C 
BRANCH  44  45
ATOM     45  C   UNL     1      24.235   0.293  17.608  1.00  0.00     0.000 C 
BRANCH  45  46
ATOM     46  C   UNL     1      24.645   1.527  16.887  1.00  0.00     0.000 C 
BRANCH  46  47
ATOM     47  C   UNL     1      24.591   2.798  17.696  1.00  0.00     0.000 C 
BRANCH  47  48
ATOM     48  C   UNL     1      25.554   3.836  17.152  1.00  0.00     0.000 C 
BRANCH  48  49
ATOM     49  C   UNL     1      25.449   5.162  17.775  1.00  0.00     0.001 C 
BRANCH  49  50
ATOM     50  C   UNL     1      26.028   6.363  17.847  1.00  0.00     0.009 C 
BRANCH  50  51
ATOM     51  C   UNL     1      26.465   7.741  17.357  1.00  0.00    -0.012 C 
BRANCH  51  52
ATOM     52  C   UNL     1      25.872   8.713  18.367  1.00  0.00    -0.018 C 
ATOM     53  C   UNL     1      24.384   8.894  18.342  1.00  0.00     0.033 C 
ATOM     54  C   UNL     1      26.068   8.320  19.765  1.00  0.00     0.033 C 
ATOM     55  C   UNL     1      26.363  10.138  18.222  1.00  0.00     0.033 C 
ATOM     56  C   UNL     1      23.871   9.971  19.244  1.00  0.00     0.101 C 
ATOM     57  C   UNL     1      25.471   9.298  20.800  1.00  0.00     0.101 C 
ATOM     58  C   UNL     1      26.037  11.040  19.384  1.00  0.00     0.101 C 
ATOM     59  C   UNL     1      23.996   9.433  20.683  1.00  0.00     0.051 C 
ATOM     60  C   UNL     1      24.505  11.279  19.312  1.00  0.00     0.051 C 
ATOM     61  C   UNL     1      26.299  10.518  20.739  1.00  0.00     0.051 C 
BRANCH  56  62
ATOM     62  S   UNL     1      22.123  10.171  18.963  1.00  0.00     0.270 S 
ATOM     63  O   UNL     1      21.856  11.353  18.063  1.00  0.00    -0.199 OA
ATOM     64  O   UNL     1      21.439  10.339  20.292  1.00  0.00    -0.199 OA
BRANCH  62  65
ATOM     65  O   UNL     1      21.547   8.770  18.240  1.00  0.00    -0.285 OA
ATOM     66  H   UNL     1      21.343   8.869  17.276  1.00  0.00     0.234 HD
ENDBRANCH  62  65
ENDBRANCH  56  62
BRANCH  57  67
ATOM     67  S   UNL     1      25.743   8.544  22.407  1.00  0.00     0.270 S 
ATOM     68  O   UNL     1      27.064   9.025  22.977  1.00  0.00    -0.199 OA
ATOM     69  O   UNL     1      25.751   7.050  22.294  1.00  0.00    -0.199 OA
BRANCH  67  70
ATOM     70  O   UNL     1      24.550   8.988  23.490  1.00  0.00    -0.285 OA
ATOM     71  H   UNL     1      24.147   8.231  23.941  1.00  0.00     0.234 HD
ENDBRANCH  67  70
ENDBRANCH  57  67
BRANCH  58  72
ATOM     72  S   UNL     1      26.791  12.620  19.118  1.00  0.00     0.270 S 
ATOM     73  O   UNL     1      25.685  13.658  19.127  1.00  0.00    -0.199 OA
ATOM     74  O   UNL     1      27.451  12.598  17.768  1.00  0.00    -0.199 OA
BRANCH  72  75
ATOM     75  O   UNL     1      27.876  13.003  20.325  1.00  0.00    -0.285 OA
ATOM     76  H   UNL     1      27.766  13.928  20.639  1.00  0.00     0.234 HD
ENDBRANCH  72  75
ENDBRANCH  58  72
ENDBRANCH  51  52
BRANCH  51  77
ATOM     77  C   UNL     1      25.833   7.801  15.977  1.00  0.00    -0.018 C 
ATOM     78  C   UNL     1      26.587   8.702  15.028  1.00  0.00     0.033 C 
ATOM     79  C   UNL     1      24.368   8.103  15.952  1.00  0.00     0.033 C 
ATOM     80  C   UNL     1      25.795   6.588  15.139  1.00  0.00     0.033 C 
ATOM     81  C   UNL     1      25.938   8.962  13.704  1.00  0.00     0.101 C 
ATOM     82  C   UNL     1      23.833   8.528  14.583  1.00  0.00     0.101 C 
ATOM     83  C   UNL     1      25.187   6.822  13.734  1.00  0.00     0.101 C 
ATOM     84  C   UNL     1      24.609   9.577  13.903  1.00  0.00     0.051 C 
ATOM     85  C   UNL     1      25.994   7.716  12.878  1.00  0.00     0.051 C 
ATOM     86  C   UNL     1      23.793   7.258  13.734  1.00  0.00     0.051 C 
BRANCH  81  87
ATOM     87  S   UNL     1      26.912  10.127  12.746  1.00  0.00     0.270 S 
ATOM     88  O   UNL     1      26.872  11.493  13.335  1.00  0.00    -0.199 OA
ATOM     89  O   UNL     1      28.338   9.639  12.747  1.00  0.00    -0.199 OA
BRANCH  87  90
ATOM     90  O   UNL     1      26.379  10.097  11.160  1.00  0.00    -0.285 OA
ATOM     91  H   UNL     1      26.650  10.976  10.756  1.00  0.00     0.234 HD
ENDBRANCH  87  90
ENDBRANCH  81  87
BRANCH  82  92
ATOM     92  S   UNL     1      22.144   9.064  14.693  1.00  0.00     0.270 S 
ATOM     93  O   UNL     1      21.321   8.223  15.589  1.00  0.00    -0.199 OA
ATOM     94  O   UNL     1      21.606   9.136  13.302  1.00  0.00    -0.199 OA
BRANCH  92  95
ATOM     95  O   UNL     1      22.186  10.646  15.310  1.00  0.00    -0.285 OA
ATOM     96  H   UNL     1      22.146  11.296  14.557  1.00  0.00     0.234 HD
ENDBRANCH  92  95
ENDBRANCH  82  92
BRANCH  83  97
ATOM     97  S   UNL     1      25.258   5.211  12.925  1.00  0.00     0.270 S 
ATOM     98  O   UNL     1      25.059   5.310  11.459  1.00  0.00    -0.199 OA
ATOM     99  O   UNL     1      26.608   4.570  13.143  1.00  0.00    -0.199 OA
BRANCH  97 100
ATOM    100  O   UNL     1      24.112   4.193  13.586  1.00  0.00    -0.285 OA
ATOM    101  H   UNL     1      24.423   3.788  14.436  1.00  0.00     0.234 HD
ENDBRANCH  97 100
ENDBRANCH  83  97
ENDBRANCH  51  77
BRANCH  51 102
ATOM    102  C   UNL     1      27.976   7.782  17.452  1.00  0.00    -0.018 C 
ATOM    103  C   UNL     1      28.750   8.734  16.654  1.00  0.00     0.033 C 
ATOM    104  C   UNL     1      28.494   7.581  18.846  1.00  0.00     0.033 C 
ATOM    105  C   UNL     1      28.597   6.460  16.891  1.00  0.00     0.033 C 
ATOM    106  C   UNL     1      30.264   8.768  16.981  1.00  0.00     0.101 C 
ATOM    107  C   UNL     1      29.989   7.657  18.999  1.00  0.00     0.101 C 
ATOM    108  C   UNL     1      30.121   6.449  17.001  1.00  0.00     0.101 C 
ATOM    109  C   UNL     1      30.526   8.910  18.424  1.00  0.00     0.051 C 
ATOM    110  C   UNL     1      30.838   7.531  16.329  1.00  0.00     0.051 C 
ATOM    111  C   UNL     1      30.619   6.401  18.425  1.00  0.00     0.051 C 
BRANCH 106 112
ATOM    112  S   UNL     1      31.018  10.137  16.118  1.00  0.00     0.270 S 
ATOM    113  O   UNL     1      29.937  10.865  15.388  1.00  0.00    -0.199 OA
ATOM    114  O   UNL     1      31.984   9.594  15.075  1.00  0.00    -0.199 OA
BRANCH 112 115
ATOM    115  O   UNL     1      31.854  11.128  17.166  1.00  0.00    -0.285 OA
ATOM    116  H   UNL     1      32.595  11.557  16.693  1.00  0.00     0.234 HD
ENDBRANCH 112 115
ENDBRANCH 106 112
BRANCH 107 117
ATOM    117  S   UNL     1      30.353   7.607  20.741  1.00  0.00     0.270 S 
ATOM    118  O   UNL     1      31.752   8.187  20.895  1.00  0.00    -0.199 OA
ATOM    119  O   UNL     1      30.343   6.235  21.278  1.00  0.00    -0.199 OA
BRANCH 117 120
ATOM    120  O   UNL     1      29.333   8.658  21.556  1.00  0.00    -0.285 OA
ATOM    121  H   UNL     1      28.884   8.144  22.267  1.00  0.00     0.234 HD
ENDBRANCH 117 120
ENDBRANCH 107 117
BRANCH 108 122
ATOM    122  S   UNL     1      30.633   4.899  16.263  1.00  0.00     0.270 S 
ATOM    123  O   UNL     1      31.706   4.350  17.144  1.00  0.00    -0.199 OA
ATOM    124  O   UNL     1      29.467   3.970  16.132  1.00  0.00    -0.199 OA
BRANCH 122 125
ATOM    125  O   UNL     1      31.323   5.267  14.778  1.00  0.00    -0.285 OA
ATOM    126  H   UNL     1      32.190   4.785  14.735  1.00  0.00     0.234 HD
ENDBRANCH 122 125
ENDBRANCH 108 122
ENDBRANCH  51 102
ENDBRANCH  50  51
ENDBRANCH  49  50
ENDBRANCH  48  49
ENDBRANCH  47  48
ENDBRANCH  46  47
ENDBRANCH  45  46
ENDBRANCH  44  45
ENDBRANCH  43  44
ENDBRANCH   1  43
TORSDOF 43
ENDMDL
MODEL 7
REMARK VINA RESULT:   -10.130      0.854      3.122
REMARK INTER + INTRA:         -41.758
REMARK INTER:                 -32.732
REMARK INTRA:                  -9.025
REMARK UNBOUND:                -8.830
REMARK SMILES NC(=O)c1ccccc1OCc1cccc(C(=O)NC[C@@H](NC(=O)c2ncc[nH]2)C(=O)NCCCCCCCCCCCC([C@]23C[C@]4(S(=O)(=O)O)C[C@](S(=O)(=O)O)(C2)C[C@](S(=O)(=O)O)(C3)C4)([C@]23C[C@]4(S(=O)(=O)O)C[C@](S(=O)(=O)O)(C2)C[C@](S(=O)(=O)O)(C3)C4)[C@]23C[C@]4(S(=O)(=O)O)C[C@](S(=O)(=O)O)(C2)C[C@](S(=O)(=O)O)(C3)C4)c1
REMARK SMILES IDX 35 1 34 2 33 3 32 4 30 5 31 6 21 8 20 9 19 10 18 11 17 12
REMARK SMILES IDX 16 14 15 15 111 16 14 17 12 18 13 19 11 20 10 21 9 22 4 23
REMARK SMILES IDX 8 24 5 25 7 26 6 27 2 28 1 29 3 30 22 33 23 34 24 36 25 37
REMARK SMILES IDX 26 38 29 39 27 40 28 41 36 43 37 44 38 45 39 46 40 47 41 48
REMARK SMILES IDX 42 49 43 50 44 51 67 52 80 53 87 54 68 55 75 56 82 57 69 58
REMARK SMILES IDX 81 59 74 60 88 61 76 62 77 63 78 64 79 65 83 67 84 68 85 69
REMARK SMILES IDX 86 70 70 72 71 73 72 74 73 75 45 77 46 78 58 79 65 80 47 81
REMARK SMILES IDX 53 82 60 83 52 84 66 85 59 86 48 87 49 88 50 89 51 90 54 92
REMARK SMILES IDX 55 93 56 94 57 95 61 97 62 98 63 99 64 100 89 102 102 103
REMARK SMILES IDX 109 104 90 105 97 106 104 107 91 108 103 109 96 110 110 111
REMARK SMILES IDX 98 112 99 113 100 114 101 115 105 117 106 118 107 119
REMARK SMILES IDX 108 120 92 122 93 123 94 124 95 125
REMARK H PARENT 32 7 19 13 1 31 1 32 22 35 29 42 79 66 86 71 73 76 51 91 57 96
REMARK H PARENT 64 101 101 116 108 121 95 126
REMARK Flexibility Score: inf
ROOT
ATOM      1  C   UNL     1      21.749  -1.967  16.305  1.00  0.00     0.002 C 
ENDROOT
BRANCH   1   2
ATOM      2  C   UNL     1      20.807  -2.804  17.095  1.00  0.00     0.021 C 
BRANCH   2   3
ATOM      3  C   UNL     1      20.397  -4.083  16.499  1.00  0.00     0.116 C 
BRANCH   3   4
ATOM      4  N   UNL     1      19.123  -4.259  15.907  1.00  0.00    -0.354 N 
ATOM      5  C   UNL     1      17.913  -4.542  16.565  1.00  0.00     0.244 C 
ATOM      6  O   UNL     1      17.903  -4.732  17.803  1.00  0.00    -0.273 OA
ATOM      7  H   UNL     1      19.057  -4.174  14.851  1.00  0.00     0.163 HD
BRANCH   5   8
ATOM      8  C   UNL     1      16.635  -4.607  15.825  1.00  0.00     0.191 C 
BRANCH   8   9
ATOM      9  C   UNL     1      15.806  -3.382  15.922  1.00  0.00     0.151 C 
BRANCH   9  10
ATOM     10  N   UNL     1      16.601  -2.154  15.792  1.00  0.00    -0.349 N 
ATOM     11  O   UNL     1      16.366  -2.228  13.510  1.00  0.00    -0.269 OA
ATOM     12  C   UNL     1      16.854  -1.627  14.506  1.00  0.00     0.251 C 
ATOM     13  H   UNL     1      16.973  -1.667  16.623  1.00  0.00     0.163 HD
BRANCH  12  14
ATOM     14  C   UNL     1      17.642  -0.445  14.328  1.00  0.00     0.040 A 
ATOM     15  C   UNL     1      17.494   0.379  13.230  1.00  0.00     0.014 A 
ATOM     16  C   UNL     1      18.566  -0.088  15.290  1.00  0.00     0.021 A 
ATOM     17  C   UNL     1      18.269   1.524  13.134  1.00  0.00     0.001 A 
ATOM     18  C   UNL     1      19.348   1.071  15.187  1.00  0.00    -0.010 A 
ATOM     19  C   UNL     1      19.179   1.875  14.084  1.00  0.00     0.007 A 
BRANCH  18  20
ATOM     20  C   UNL     1      20.299   1.363  16.267  1.00  0.00     0.265 C 
BRANCH  20  21
ATOM     21  O   UNL     1      19.663   1.228  17.521  1.00  0.00    -0.488 OA
BRANCH  21  22
ATOM     22  C   UNL     1      20.276   1.827  18.634  1.00  0.00     0.132 A 
ATOM     23  C   UNL     1      19.486   2.231  19.670  1.00  0.00     0.081 A 
ATOM     24  C   UNL     1      21.633   1.996  18.674  1.00  0.00     0.047 A 
ATOM     25  C   UNL     1      20.056   2.825  20.792  1.00  0.00     0.018 A 
ATOM     26  C   UNL     1      22.199   2.588  19.794  1.00  0.00     0.004 A 
ATOM     27  C   UNL     1      21.422   2.998  20.840  1.00  0.00     0.001 A 
BRANCH  23  28
ATOM     28  C   UNL     1      18.031   2.070  19.599  1.00  0.00     0.252 C 
ATOM     29  N   UNL     1      17.414   2.206  18.332  1.00  0.00    -0.365 N 
ATOM     30  O   UNL     1      17.386   1.820  20.643  1.00  0.00    -0.269 OA
ATOM     31  H   UNL     1      17.232   3.144  17.910  1.00  0.00     0.159 HD
ATOM     32  H   UNL     1      17.120   1.371  17.779  1.00  0.00     0.159 HD
ENDBRANCH  23  28
ENDBRANCH  21  22
ENDBRANCH  20  21
ENDBRANCH  18  20
ENDBRANCH  12  14
ENDBRANCH   9  10
ENDBRANCH   8   9
BRANCH   8  33
ATOM     33  N   UNL     1      16.670  -5.174  14.514  1.00  0.00    -0.336 N 
ATOM     34  C   UNL     1      15.688  -5.985  13.918  1.00  0.00     0.287 C 
ATOM     35  H   UNL     1      17.536  -4.964  13.933  1.00  0.00     0.164 HD
ATOM     36  O   UNL     1      14.661  -6.323  14.536  1.00  0.00    -0.266 OA
BRANCH  34  37
ATOM     37  C   UNL     1      15.858  -6.458  12.521  1.00  0.00     0.196 A 
ATOM     38  N   UNL     1      16.759  -7.290  12.076  1.00  0.00    -0.232 NA
ATOM     39  N   UNL     1      15.007  -6.141  11.513  1.00  0.00    -0.341 N 
ATOM     40  C   UNL     1      16.551  -7.561  10.764  1.00  0.00     0.131 A 
ATOM     41  C   UNL     1      15.414  -6.805  10.431  1.00  0.00     0.104 A 
ATOM     42  H   UNL     1      14.208  -5.509  11.602  1.00  0.00     0.168 HD
ENDBRANCH  34  37
ENDBRANCH   8  33
ENDBRANCH   5   8
ENDBRANCH   3   4
ENDBRANCH   2   3
ENDBRANCH   1   2
BRANCH   1  43
ATOM     43  C   UNL     1      22.714  -1.253  17.251  1.00  0.00     0.000 C 
BRANCH  43  44
ATOM     44  C   UNL     1      23.908  -0.760  16.550  1.00  0.00     0.000 C 
BRANCH  44  45
ATOM     45  C   UNL     1      24.840   0.063  17.493  1.00  0.00     0.000 C 
BRANCH  45  46
ATOM     46  C   UNL     1      24.915   1.443  16.943  1.00  0.00     0.000 C 
BRANCH  46  47
ATOM     47  C   UNL     1      25.416   2.495  17.900  1.00  0.00     0.000 C 
BRANCH  47  48
ATOM     48  C   UNL     1      25.147   3.890  17.371  1.00  0.00     0.000 C 
BRANCH  48  49
ATOM     49  C   UNL     1      25.810   4.970  18.114  1.00  0.00     0.001 C 
BRANCH  49  50
ATOM     50  C   UNL     1      25.998   6.292  18.146  1.00  0.00     0.009 C 
BRANCH  50  51
ATOM     51  C   UNL     1      26.426   7.661  17.625  1.00  0.00    -0.012 C 
BRANCH  51  52
ATOM     52  C   UNL     1      27.945   7.644  17.700  1.00  0.00    -0.018 C 
ATOM     53  C   UNL     1      28.555   7.478  19.060  1.00  0.00     0.033 C 
ATOM     54  C   UNL     1      28.568   6.523  16.991  1.00  0.00     0.033 C 
ATOM     55  C   UNL     1      28.607   8.915  17.214  1.00  0.00     0.033 C 
ATOM     56  C   UNL     1      30.043   7.623  19.099  1.00  0.00     0.101 C 
ATOM     57  C   UNL     1      30.111   6.493  17.060  1.00  0.00     0.101 C 
ATOM     58  C   UNL     1      30.093   8.807  16.989  1.00  0.00     0.101 C 
ATOM     59  C   UNL     1      30.624   6.353  18.448  1.00  0.00     0.051 C 
ATOM     60  C   UNL     1      30.724   8.705  18.403  1.00  0.00     0.051 C 
ATOM     61  C   UNL     1      30.582   7.630  16.246  1.00  0.00     0.051 C 
BRANCH  56  62
ATOM     62  S   UNL     1      30.581   7.574  20.796  1.00  0.00     0.270 S 
ATOM     63  O   UNL     1      30.654   6.151  21.294  1.00  0.00    -0.199 OA
ATOM     64  O   UNL     1      29.626   8.388  21.626  1.00  0.00    -0.199 OA
BRANCH  62  65
ATOM     65  O   UNL     1      32.101   8.280  20.883  1.00  0.00    -0.285 OA
ATOM     66  H   UNL     1      32.798   7.690  21.263  1.00  0.00     0.234 HD
ENDBRANCH  62  65
ENDBRANCH  56  62
BRANCH  57  67
ATOM     67  S   UNL     1      30.615   4.987  16.223  1.00  0.00     0.270 S 
ATOM     68  O   UNL     1      31.146   3.994  17.239  1.00  0.00    -0.199 OA
ATOM     69  O   UNL     1      31.667   5.280  15.197  1.00  0.00    -0.199 OA
BRANCH  67  70
ATOM     70  O   UNL     1      29.318   4.260  15.459  1.00  0.00    -0.285 OA
ATOM     71  H   UNL     1      28.664   4.897  15.135  1.00  0.00     0.234 HD
ENDBRANCH  67  70
ENDBRANCH  57  67
BRANCH  58  72
ATOM     72  S   UNL     1      30.685  10.327  16.299  1.00  0.00     0.270 S 
ATOM     73  O   UNL     1      31.832  10.804  17.169  1.00  0.00    -0.199 OA
ATOM     74  O   UNL     1      29.564  11.327  16.349  1.00  0.00    -0.199 OA
BRANCH  72  75
ATOM     75  O   UNL     1      31.258  10.124  14.746  1.00  0.00    -0.285 OA
ATOM     76  H   UNL     1      32.236  10.214  14.699  1.00  0.00     0.234 HD
ENDBRANCH  72  75
ENDBRANCH  58  72
ENDBRANCH  51  52
BRANCH  51  77
ATOM     77  C   UNL     1      25.755   8.599  18.613  1.00  0.00    -0.018 C 
ATOM     78  C   UNL     1      24.267   8.363  18.725  1.00  0.00     0.033 C 
ATOM     79  C   UNL     1      26.053  10.054  18.425  1.00  0.00     0.033 C 
ATOM     80  C   UNL     1      26.096   8.515  20.046  1.00  0.00     0.033 C 
ATOM     81  C   UNL     1      23.497   9.357  19.539  1.00  0.00     0.101 C 
ATOM     82  C   UNL     1      25.100  10.995  19.164  1.00  0.00     0.101 C 
ATOM     83  C   UNL     1      25.279   9.483  20.936  1.00  0.00     0.101 C 
ATOM     84  C   UNL     1      23.668  10.713  18.976  1.00  0.00     0.051 C 
ATOM     85  C   UNL     1      23.835   9.173  20.984  1.00  0.00     0.051 C 
ATOM     86  C   UNL     1      25.474  10.901  20.642  1.00  0.00     0.051 C 
BRANCH  81  87
ATOM     87  S   UNL     1      21.742   8.988  19.483  1.00  0.00     0.270 S 
ATOM     88  O   UNL     1      21.451   7.616  19.980  1.00  0.00    -0.199 OA
ATOM     89  O   UNL     1      21.037   9.985  20.367  1.00  0.00    -0.199 OA
BRANCH  87  90
ATOM     90  O   UNL     1      21.189   9.234  17.922  1.00  0.00    -0.285 OA
ATOM     91  H   UNL     1      20.295   9.684  18.009  1.00  0.00     0.234 HD
ENDBRANCH  87  90
ENDBRANCH  81  87
BRANCH  82  92
ATOM     92  S   UNL     1      25.399  12.688  18.718  1.00  0.00     0.270 S 
ATOM     93  O   UNL     1      24.390  13.234  17.785  1.00  0.00    -0.199 OA
ATOM     94  O   UNL     1      26.791  12.771  18.187  1.00  0.00    -0.199 OA
BRANCH  92  95
ATOM     95  O   UNL     1      25.347  13.577  20.165  1.00  0.00    -0.285 OA
ATOM     96  H   UNL     1      25.754  13.040  20.897  1.00  0.00     0.234 HD
ENDBRANCH  92  95
ENDBRANCH  82  92
BRANCH  83  97
ATOM     97  S   UNL     1      25.877   9.184  22.613  1.00  0.00     0.270 S 
ATOM     98  O   UNL     1      25.021   9.830  23.637  1.00  0.00    -0.199 OA
ATOM     99  O   UNL     1      25.883   7.705  22.915  1.00  0.00    -0.199 OA
BRANCH  97 100
ATOM    100  O   UNL     1      27.448   9.728  22.760  1.00  0.00    -0.285 OA
ATOM    101  H   UNL     1      28.094   9.117  22.322  1.00  0.00     0.234 HD
ENDBRANCH  97 100
ENDBRANCH  83  97
ENDBRANCH  51  77
BRANCH  51 102
ATOM    102  C   UNL     1      25.998   7.730  16.173  1.00  0.00    -0.018 C 
ATOM    103  C   UNL     1      26.221   6.597  15.274  1.00  0.00     0.033 C 
ATOM    104  C   UNL     1      24.688   8.432  15.967  1.00  0.00     0.033 C 
ATOM    105  C   UNL     1      26.842   8.799  15.402  1.00  0.00     0.033 C 
ATOM    106  C   UNL     1      25.585   6.753  13.870  1.00  0.00     0.101 C 
ATOM    107  C   UNL     1      24.200   8.488  14.545  1.00  0.00     0.101 C 
ATOM    108  C   UNL     1      26.417   8.921  13.940  1.00  0.00     0.101 C 
ATOM    109  C   UNL     1      24.164   7.140  13.935  1.00  0.00     0.051 C 
ATOM    110  C   UNL     1      26.492   7.708  13.128  1.00  0.00     0.051 C 
ATOM    111  C   UNL     1      25.031   9.491  13.764  1.00  0.00     0.051 C 
BRANCH 106 112
ATOM    112  S   UNL     1      25.724   5.206  12.989  1.00  0.00     0.270 S 
ATOM    113  O   UNL     1      26.950   4.511  13.482  1.00  0.00    -0.199 OA
ATOM    114  O   UNL     1      25.930   5.495  11.509  1.00  0.00    -0.199 OA
BRANCH 112 115
ATOM    115  O   UNL     1      24.351   4.279  13.172  1.00  0.00    -0.285 OA
ATOM    116  H   UNL     1      23.837   4.600  13.940  1.00  0.00     0.234 HD
ENDBRANCH 112 115
ENDBRANCH 106 112
BRANCH 107 117
ATOM    117  S   UNL     1      22.553   9.164  14.570  1.00  0.00     0.270 S 
ATOM    118  O   UNL     1      22.174   9.399  13.114  1.00  0.00    -0.199 OA
ATOM    119  O   UNL     1      22.483  10.445  15.294  1.00  0.00    -0.199 OA
BRANCH 117 120
ATOM    120  O   UNL     1      21.481   8.008  15.138  1.00  0.00    -0.285 OA
ATOM    121  H   UNL     1      21.861   7.633  15.967  1.00  0.00     0.234 HD
ENDBRANCH 117 120
ENDBRANCH 107 117
BRANCH 108 122
ATOM    122  S   UNL     1      27.526  10.136  13.230  1.00  0.00     0.270 S 
ATOM    123  O   UNL     1      28.879   9.507  13.208  1.00  0.00    -0.199 OA
ATOM    124  O   UNL     1      27.058  10.540  11.867  1.00  0.00    -0.199 OA
BRANCH 122 125
ATOM    125  O   UNL     1      27.578  11.433  14.294  1.00  0.00    -0.285 OA
ATOM    126  H   UNL     1      26.685  11.487  14.728  1.00  0.00     0.234 HD
ENDBRANCH 122 125
ENDBRANCH 108 122
ENDBRANCH  51 102
ENDBRANCH  50  51
ENDBRANCH  49  50
ENDBRANCH  48  49
ENDBRANCH  47  48
ENDBRANCH  46  47
ENDBRANCH  45  46
ENDBRANCH  44  45
ENDBRANCH  43  44
ENDBRANCH   1  43
TORSDOF 43
ENDMDL
MODEL 8
REMARK VINA RESULT:   -10.120      1.770      6.977
REMARK INTER + INTRA:         -41.726
REMARK INTER:                 -32.023
REMARK INTRA:                  -9.702
REMARK UNBOUND:                -8.830
REMARK SMILES NC(=O)c1ccccc1OCc1cccc(C(=O)NC[C@@H](NC(=O)c2ncc[nH]2)C(=O)NCCCCCCCCCCCC([C@]23C[C@]4(S(=O)(=O)O)C[C@](S(=O)(=O)O)(C2)C[C@](S(=O)(=O)O)(C3)C4)([C@]23C[C@]4(S(=O)(=O)O)C[C@](S(=O)(=O)O)(C2)C[C@](S(=O)(=O)O)(C3)C4)[C@]23C[C@]4(S(=O)(=O)O)C[C@](S(=O)(=O)O)(C2)C[C@](S(=O)(=O)O)(C3)C4)c1
REMARK SMILES IDX 35 1 34 2 33 3 32 4 30 5 31 6 21 8 20 9 19 10 18 11 17 12
REMARK SMILES IDX 16 14 15 15 111 16 14 17 12 18 13 19 11 20 10 21 9 22 4 23
REMARK SMILES IDX 8 24 5 25 7 26 6 27 2 28 1 29 3 30 22 33 23 34 24 36 25 37
REMARK SMILES IDX 26 38 29 39 27 40 28 41 36 43 37 44 38 45 39 46 40 47 41 48
REMARK SMILES IDX 42 49 43 50 44 51 67 52 80 53 87 54 68 55 75 56 82 57 69 58
REMARK SMILES IDX 81 59 74 60 88 61 76 62 77 63 78 64 79 65 83 67 84 68 85 69
REMARK SMILES IDX 86 70 70 72 71 73 72 74 73 75 45 77 46 78 58 79 65 80 47 81
REMARK SMILES IDX 53 82 60 83 52 84 66 85 59 86 48 87 49 88 50 89 51 90 54 92
REMARK SMILES IDX 55 93 56 94 57 95 61 97 62 98 63 99 64 100 89 102 102 103
REMARK SMILES IDX 109 104 90 105 97 106 104 107 91 108 103 109 96 110 110 111
REMARK SMILES IDX 98 112 99 113 100 114 101 115 105 117 106 118 107 119
REMARK SMILES IDX 108 120 92 122 93 123 94 124 95 125
REMARK H PARENT 32 7 19 13 1 31 1 32 22 35 29 42 79 66 86 71 73 76 51 91 57 96
REMARK H PARENT 64 101 101 116 108 121 95 126
REMARK Flexibility Score: inf
ROOT
ATOM      1  C   UNL     1      20.154   1.589  14.836  1.00  0.00     0.002 C 
ENDROOT
BRANCH   1   2
ATOM      2  C   UNL     1      19.139   1.704  13.754  1.00  0.00     0.021 C 
BRANCH   2   3
ATOM      3  C   UNL     1      18.444   0.469  13.365  1.00  0.00     0.116 C 
BRANCH   3   4
ATOM      4  N   UNL     1      18.825  -0.796  13.874  1.00  0.00    -0.354 N 
ATOM      5  C   UNL     1      18.337  -1.427  15.031  1.00  0.00     0.244 C 
ATOM      6  O   UNL     1      17.518  -0.833  15.770  1.00  0.00    -0.273 OA
ATOM      7  H   UNL     1      19.560  -1.340  13.335  1.00  0.00     0.163 HD
BRANCH   5   8
ATOM      8  C   UNL     1      18.758  -2.798  15.392  1.00  0.00     0.191 C 
BRANCH   8   9
ATOM      9  C   UNL     1      19.075  -2.985  16.828  1.00  0.00     0.151 C 
BRANCH   9  10
ATOM     10  N   UNL     1      20.103  -2.051  17.303  1.00  0.00    -0.349 N 
ATOM     11  O   UNL     1      21.497  -2.696  15.597  1.00  0.00    -0.269 OA
ATOM     12  C   UNL     1      21.334  -1.969  16.616  1.00  0.00     0.251 C 
ATOM     13  H   UNL     1      19.941  -1.450  18.127  1.00  0.00     0.163 HD
BRANCH  12  14
ATOM     14  C   UNL     1      22.375  -1.089  17.054  1.00  0.00     0.040 A 
ATOM     15  C   UNL     1      23.712  -1.380  16.869  1.00  0.00     0.014 A 
ATOM     16  C   UNL     1      22.047   0.108  17.660  1.00  0.00     0.021 A 
ATOM     17  C   UNL     1      24.667  -0.471  17.292  1.00  0.00     0.001 A 
ATOM     18  C   UNL     1      23.019   1.024  18.087  1.00  0.00    -0.010 A 
ATOM     19  C   UNL     1      24.342   0.709  17.888  1.00  0.00     0.007 A 
BRANCH  18  20
ATOM     20  C   UNL     1      22.566   2.271  18.717  1.00  0.00     0.265 C 
BRANCH  20  21
ATOM     21  O   UNL     1      21.155   2.288  18.794  1.00  0.00    -0.488 OA
BRANCH  21  22
ATOM     22  C   UNL     1      20.570   2.559  20.042  1.00  0.00     0.132 A 
ATOM     23  C   UNL     1      19.261   2.227  20.231  1.00  0.00     0.081 A 
ATOM     24  C   UNL     1      21.303   3.139  21.042  1.00  0.00     0.047 A 
ATOM     25  C   UNL     1      18.647   2.475  21.455  1.00  0.00     0.018 A 
ATOM     26  C   UNL     1      20.689   3.385  22.262  1.00  0.00     0.004 A 
ATOM     27  C   UNL     1      19.378   3.058  22.468  1.00  0.00     0.001 A 
BRANCH  23  28
ATOM     28  C   UNL     1      18.483   1.633  19.140  1.00  0.00     0.252 C 
ATOM     29  N   UNL     1      17.347   2.342  18.680  1.00  0.00    -0.365 N 
ATOM     30  O   UNL     1      18.839   0.536  18.655  1.00  0.00    -0.269 OA
ATOM     31  H   UNL     1      16.443   2.326  19.202  1.00  0.00     0.159 HD
ATOM     32  H   UNL     1      17.377   2.904  17.800  1.00  0.00     0.159 HD
ENDBRANCH  23  28
ENDBRANCH  21  22
ENDBRANCH  20  21
ENDBRANCH  18  20
ENDBRANCH  12  14
ENDBRANCH   9  10
ENDBRANCH   8   9
BRANCH   8  33
ATOM     33  N   UNL     1      18.017  -3.878  14.823  1.00  0.00    -0.336 N 
ATOM     34  C   UNL     1      18.441  -5.210  14.677  1.00  0.00     0.287 C 
ATOM     35  H   UNL     1      17.042  -3.643  14.465  1.00  0.00     0.164 HD
ATOM     36  O   UNL     1      19.581  -5.571  15.024  1.00  0.00    -0.266 OA
BRANCH  34  37
ATOM     37  C   UNL     1      17.525  -6.227  14.102  1.00  0.00     0.196 A 
ATOM     38  N   UNL     1      16.412  -6.009  13.456  1.00  0.00    -0.232 NA
ATOM     39  N   UNL     1      17.789  -7.559  14.099  1.00  0.00    -0.341 N 
ATOM     40  C   UNL     1      15.891  -7.174  12.998  1.00  0.00     0.131 A 
ATOM     41  C   UNL     1      16.801  -8.153  13.430  1.00  0.00     0.104 A 
ATOM     42  H   UNL     1      18.606  -7.991  14.536  1.00  0.00     0.168 HD
ENDBRANCH  34  37
ENDBRANCH   8  33
ENDBRANCH   5   8
ENDBRANCH   3   4
ENDBRANCH   2   3
ENDBRANCH   1   2
BRANCH   1  43
ATOM     43  C   UNL     1      21.540   1.412  14.218  1.00  0.00     0.000 C 
BRANCH  43  44
ATOM     44  C   UNL     1      22.311   2.663  14.224  1.00  0.00     0.000 C 
BRANCH  44  45
ATOM     45  C   UNL     1      23.774   2.445  14.721  1.00  0.00     0.000 C 
BRANCH  45  46
ATOM     46  C   UNL     1      24.172   3.668  15.467  1.00  0.00     0.000 C 
BRANCH  46  47
ATOM     47  C   UNL     1      25.527   3.613  16.126  1.00  0.00     0.000 C 
BRANCH  47  48
ATOM     48  C   UNL     1      25.493   4.241  17.506  1.00  0.00     0.000 C 
BRANCH  48  49
ATOM     49  C   UNL     1      25.981   5.625  17.567  1.00  0.00     0.001 C 
BRANCH  49  50
ATOM     50  C   UNL     1      25.717   6.874  17.174  1.00  0.00     0.009 C 
BRANCH  50  51
ATOM     51  C   UNL     1      26.026   8.319  16.797  1.00  0.00    -0.012 C 
BRANCH  51  52
ATOM     52  C   UNL     1      24.689   9.038  16.902  1.00  0.00    -0.018 C 
ATOM     53  C   UNL     1      23.583   8.548  16.017  1.00  0.00     0.033 C 
ATOM     54  C   UNL     1      24.048   8.923  18.215  1.00  0.00     0.033 C 
ATOM     55  C   UNL     1      24.743  10.509  16.550  1.00  0.00     0.033 C 
ATOM     56  C   UNL     1      22.343   9.383  16.046  1.00  0.00     0.101 C 
ATOM     57  C   UNL     1      22.690   9.648  18.336  1.00  0.00     0.101 C 
ATOM     58  C   UNL     1      23.521  11.298  16.941  1.00  0.00     0.101 C 
ATOM     59  C   UNL     1      21.665   9.112  17.403  1.00  0.00     0.051 C 
ATOM     60  C   UNL     1      22.397  10.836  15.975  1.00  0.00     0.051 C 
ATOM     61  C   UNL     1      22.990  11.092  18.302  1.00  0.00     0.051 C 
BRANCH  56  62
ATOM     62  S   UNL     1      21.208   8.769  14.818  1.00  0.00     0.270 S 
ATOM     63  O   UNL     1      20.886   9.839  13.802  1.00  0.00    -0.199 OA
ATOM     64  O   UNL     1      19.962   8.291  15.512  1.00  0.00    -0.199 OA
BRANCH  62  65
ATOM     65  O   UNL     1      21.927   7.461  14.051  1.00  0.00    -0.285 OA
ATOM     66  H   UNL     1      21.444   7.153  13.243  1.00  0.00     0.234 HD
ENDBRANCH  62  65
ENDBRANCH  56  62
BRANCH  57  67
ATOM     67  S   UNL     1      22.070   9.266  19.978  1.00  0.00     0.270 S 
ATOM     68  O   UNL     1      22.504   7.867  20.372  1.00  0.00    -0.199 OA
ATOM     69  O   UNL     1      20.575   9.366  20.013  1.00  0.00    -0.199 OA
BRANCH  67  70
ATOM     70  O   UNL     1      22.699  10.314  21.118  1.00  0.00    -0.285 OA
ATOM     71  H   UNL     1      22.151  10.380  21.915  1.00  0.00     0.234 HD
ENDBRANCH  67  70
ENDBRANCH  57  67
BRANCH  58  72
ATOM     72  S   UNL     1      23.799  13.010  16.583  1.00  0.00     0.270 S 
ATOM     73  O   UNL     1      24.166  13.693  17.886  1.00  0.00    -0.199 OA
ATOM     74  O   UNL     1      22.515  13.589  16.055  1.00  0.00    -0.199 OA
BRANCH  72  75
ATOM     75  O   UNL     1      25.056  13.225  15.508  1.00  0.00    -0.285 OA
ATOM     76  H   UNL     1      24.818  13.842  14.781  1.00  0.00     0.234 HD
ENDBRANCH  72  75
ENDBRANCH  58  72
ENDBRANCH  51  52
BRANCH  51  77
ATOM     77  C   UNL     1      26.552   8.170  15.380  1.00  0.00    -0.018 C 
ATOM     78  C   UNL     1      28.017   7.804  15.336  1.00  0.00     0.033 C 
ATOM     79  C   UNL     1      26.259   9.313  14.460  1.00  0.00     0.033 C 
ATOM     80  C   UNL     1      26.034   7.090  14.519  1.00  0.00     0.033 C 
ATOM     81  C   UNL     1      28.663   7.812  13.986  1.00  0.00     0.101 C 
ATOM     82  C   UNL     1      27.098   9.326  13.180  1.00  0.00     0.101 C 
ATOM     83  C   UNL     1      26.717   7.021  13.131  1.00  0.00     0.101 C 
ATOM     84  C   UNL     1      28.545   9.154  13.376  1.00  0.00     0.051 C 
ATOM     85  C   UNL     1      28.148   6.656  13.189  1.00  0.00     0.051 C 
ATOM     86  C   UNL     1      26.541   8.209  12.299  1.00  0.00     0.051 C 
BRANCH  81  87
ATOM     87  S   UNL     1      30.417   7.457  14.127  1.00  0.00     0.270 S 
ATOM     88  O   UNL     1      31.176   7.950  12.945  1.00  0.00    -0.199 OA
ATOM     89  O   UNL     1      30.927   8.160  15.360  1.00  0.00    -0.199 OA
BRANCH  87  90
ATOM     90  O   UNL     1      30.615   5.815  14.377  1.00  0.00    -0.285 OA
ATOM     91  H   UNL     1      29.907   5.359  13.828  1.00  0.00     0.234 HD
ENDBRANCH  87  90
ENDBRANCH  81  87
BRANCH  82  92
ATOM     92  S   UNL     1      26.833  10.819  12.256  1.00  0.00     0.270 S 
ATOM     93  O   UNL     1      28.084  11.423  11.749  1.00  0.00    -0.199 OA
ATOM     94  O   UNL     1      26.045  11.746  13.121  1.00  0.00    -0.199 OA
BRANCH  92  95
ATOM     95  O   UNL     1      25.854  10.393  10.934  1.00  0.00    -0.285 OA
ATOM     96  H   UNL     1      26.149  10.898  10.129  1.00  0.00     0.234 HD
ENDBRANCH  92  95
ENDBRANCH  82  92
BRANCH  83  97
ATOM     97  S   UNL     1      25.916   5.639  12.290  1.00  0.00     0.270 S 
ATOM     98  O   UNL     1      26.475   4.330  12.706  1.00  0.00    -0.199 OA
ATOM     99  O   UNL     1      24.441   5.610  12.611  1.00  0.00    -0.199 OA
BRANCH  97 100
ATOM    100  O   UNL     1      26.062   5.820  10.637  1.00  0.00    -0.285 OA
ATOM    101  H   UNL     1      27.002   5.723  10.336  1.00  0.00     0.234 HD
ENDBRANCH  97 100
ENDBRANCH  83  97
ENDBRANCH  51  77
BRANCH  51 102
ATOM    102  C   UNL     1      26.968   8.858  17.855  1.00  0.00    -0.018 C 
ATOM    103  C   UNL     1      28.107   8.062  18.315  1.00  0.00     0.033 C 
ATOM    104  C   UNL     1      27.256  10.323  17.710  1.00  0.00     0.033 C 
ATOM    105  C   UNL     1      26.227   9.005  19.225  1.00  0.00     0.033 C 
ATOM    106  C   UNL     1      29.068   8.808  19.274  1.00  0.00     0.101 C 
ATOM    107  C   UNL     1      28.222  10.895  18.712  1.00  0.00     0.101 C 
ATOM    108  C   UNL     1      27.136   9.577  20.311  1.00  0.00     0.101 C 
ATOM    109  C   UNL     1      29.483  10.122  18.747  1.00  0.00     0.051 C 
ATOM    110  C   UNL     1      28.358   8.832  20.608  1.00  0.00     0.051 C 
ATOM    111  C   UNL     1      27.538  11.011  20.063  1.00  0.00     0.051 C 
BRANCH 106 112
ATOM    112  S   UNL     1      30.522   7.807  19.542  1.00  0.00     0.270 S 
ATOM    113  O   UNL     1      31.704   8.588  19.069  1.00  0.00    -0.199 OA
ATOM    114  O   UNL     1      30.429   6.557  18.679  1.00  0.00    -0.199 OA
BRANCH 112 115
ATOM    115  O   UNL     1      30.659   7.353  21.140  1.00  0.00    -0.285 OA
ATOM    116  H   UNL     1      29.826   7.554  21.612  1.00  0.00     0.234 HD
ENDBRANCH 112 115
ENDBRANCH 106 112
BRANCH 107 117
ATOM    117  S   UNL     1      28.573  12.570  18.222  1.00  0.00     0.270 S 
ATOM    118  O   UNL     1      29.560  12.470  17.066  1.00  0.00    -0.199 OA
ATOM    119  O   UNL     1      29.186  13.355  19.307  1.00  0.00    -0.199 OA
BRANCH 117 120
ATOM    120  O   UNL     1      27.191  13.267  17.581  1.00  0.00    -0.285 OA
ATOM    121  H   UNL     1      26.556  12.540  17.384  1.00  0.00     0.234 HD
ENDBRANCH 117 120
ENDBRANCH 107 117
BRANCH 108 122
ATOM    122  S   UNL     1      26.131   9.613  21.793  1.00  0.00     0.270 S 
ATOM    123  O   UNL     1      27.071   9.452  22.942  1.00  0.00    -0.199 OA
ATOM    124  O   UNL     1      25.348  10.886  21.865  1.00  0.00    -0.199 OA
BRANCH 122 125
ATOM    125  O   UNL     1      25.140   8.259  21.746  1.00  0.00    -0.285 OA
ATOM    126  H   UNL     1      25.477   7.630  22.437  1.00  0.00     0.234 HD
ENDBRANCH 122 125
ENDBRANCH 108 122
ENDBRANCH  51 102
ENDBRANCH  50  51
ENDBRANCH  49  50
ENDBRANCH  48  49
ENDBRANCH  47  48
ENDBRANCH  46  47
ENDBRANCH  45  46
ENDBRANCH  44  45
ENDBRANCH  43  44
ENDBRANCH   1  43
TORSDOF 43
ENDMDL
MODEL 9
REMARK VINA RESULT:   -10.115      0.962      3.126
REMARK INTER + INTRA:         -41.712
REMARK INTER:                 -32.887
REMARK INTRA:                  -8.825
REMARK UNBOUND:                -8.830
REMARK SMILES NC(=O)c1ccccc1OCc1cccc(C(=O)NC[C@@H](NC(=O)c2ncc[nH]2)C(=O)NCCCCCCCCCCCC([C@]23C[C@]4(S(=O)(=O)O)C[C@](S(=O)(=O)O)(C2)C[C@](S(=O)(=O)O)(C3)C4)([C@]23C[C@]4(S(=O)(=O)O)C[C@](S(=O)(=O)O)(C2)C[C@](S(=O)(=O)O)(C3)C4)[C@]23C[C@]4(S(=O)(=O)O)C[C@](S(=O)(=O)O)(C2)C[C@](S(=O)(=O)O)(C3)C4)c1
REMARK SMILES IDX 35 1 34 2 33 3 32 4 30 5 31 6 21 8 20 9 19 10 18 11 17 12
REMARK SMILES IDX 16 14 15 15 111 16 14 17 12 18 13 19 11 20 10 21 9 22 4 23
REMARK SMILES IDX 8 24 5 25 7 26 6 27 2 28 1 29 3 30 22 33 23 34 24 36 25 37
REMARK SMILES IDX 26 38 29 39 27 40 28 41 36 43 37 44 38 45 39 46 40 47 41 48
REMARK SMILES IDX 42 49 43 50 44 51 67 52 80 53 87 54 68 55 75 56 82 57 69 58
REMARK SMILES IDX 81 59 74 60 88 61 76 62 77 63 78 64 79 65 83 67 84 68 85 69
REMARK SMILES IDX 86 70 70 72 71 73 72 74 73 75 45 77 46 78 58 79 65 80 47 81
REMARK SMILES IDX 53 82 60 83 52 84 66 85 59 86 48 87 49 88 50 89 51 90 54 92
REMARK SMILES IDX 55 93 56 94 57 95 61 97 62 98 63 99 64 100 89 102 102 103
REMARK SMILES IDX 109 104 90 105 97 106 104 107 91 108 103 109 96 110 110 111
REMARK SMILES IDX 98 112 99 113 100 114 101 115 105 117 106 118 107 119
REMARK SMILES IDX 108 120 92 122 93 123 94 124 95 125
REMARK H PARENT 32 7 19 13 1 31 1 32 22 35 29 42 79 66 86 71 73 76 51 91 57 96
REMARK H PARENT 64 101 101 116 108 121 95 126
REMARK Flexibility Score: inf
ROOT
ATOM      1  C   UNL     1      21.743  -1.794  16.264  1.00  0.00     0.002 C 
ENDROOT
BRANCH   1   2
ATOM      2  C   UNL     1      20.684  -2.515  17.020  1.00  0.00     0.021 C 
BRANCH   2   3
ATOM      3  C   UNL     1      20.335  -3.862  16.548  1.00  0.00     0.116 C 
BRANCH   3   4
ATOM      4  N   UNL     1      19.074  -4.150  15.971  1.00  0.00    -0.354 N 
ATOM      5  C   UNL     1      17.866  -4.390  16.649  1.00  0.00     0.244 C 
ATOM      6  O   UNL     1      17.847  -4.428  17.901  1.00  0.00    -0.273 OA
ATOM      7  H   UNL     1      19.017  -4.195  14.913  1.00  0.00     0.163 HD
BRANCH   5   8
ATOM      8  C   UNL     1      16.599  -4.584  15.913  1.00  0.00     0.191 C 
BRANCH   8   9
ATOM      9  C   UNL     1      15.756  -3.369  15.807  1.00  0.00     0.151 C 
BRANCH   9  10
ATOM     10  N   UNL     1      16.552  -2.144  15.662  1.00  0.00    -0.349 N 
ATOM     11  O   UNL     1      15.578  -1.738  13.624  1.00  0.00    -0.269 OA
ATOM     12  C   UNL     1      16.408  -1.360  14.496  1.00  0.00     0.251 C 
ATOM     13  H   UNL     1      17.210  -1.843  16.398  1.00  0.00     0.163 HD
BRANCH  12  14
ATOM     14  C   UNL     1      17.179  -0.170  14.300  1.00  0.00     0.040 A 
ATOM     15  C   UNL     1      16.904   0.726  13.285  1.00  0.00     0.014 A 
ATOM     16  C   UNL     1      18.219   0.121  15.161  1.00  0.00     0.021 A 
ATOM     17  C   UNL     1      17.670   1.874  13.170  1.00  0.00     0.001 A 
ATOM     18  C   UNL     1      18.992   1.284  15.038  1.00  0.00    -0.010 A 
ATOM     19  C   UNL     1      18.695   2.159  14.020  1.00  0.00     0.007 A 
BRANCH  18  20
ATOM     20  C   UNL     1      20.073   1.502  16.007  1.00  0.00     0.265 C 
BRANCH  20  21
ATOM     21  O   UNL     1      19.619   1.204  17.312  1.00  0.00    -0.488 OA
BRANCH  21  22
ATOM     22  C   UNL     1      20.317   1.769  18.393  1.00  0.00     0.132 A 
ATOM     23  C   UNL     1      19.609   2.148  19.496  1.00  0.00     0.081 A 
ATOM     24  C   UNL     1      21.675   1.929  18.337  1.00  0.00     0.047 A 
ATOM     25  C   UNL     1      20.264   2.707  20.588  1.00  0.00     0.018 A 
ATOM     26  C   UNL     1      22.326   2.486  19.428  1.00  0.00     0.004 A 
ATOM     27  C   UNL     1      21.632   2.871  20.540  1.00  0.00     0.001 A 
BRANCH  23  28
ATOM     28  C   UNL     1      18.151   1.996  19.528  1.00  0.00     0.252 C 
ATOM     29  N   UNL     1      17.431   2.307  18.349  1.00  0.00    -0.365 N 
ATOM     30  O   UNL     1      17.595   1.604  20.578  1.00  0.00    -0.269 OA
ATOM     31  H   UNL     1      17.224   3.294  18.079  1.00  0.00     0.159 HD
ATOM     32  H   UNL     1      17.081   1.556  17.713  1.00  0.00     0.159 HD
ENDBRANCH  23  28
ENDBRANCH  21  22
ENDBRANCH  20  21
ENDBRANCH  18  20
ENDBRANCH  12  14
ENDBRANCH   9  10
ENDBRANCH   8   9
BRANCH   8  33
ATOM     33  N   UNL     1      16.658  -5.348  14.707  1.00  0.00    -0.336 N 
ATOM     34  C   UNL     1      15.765  -6.355  14.300  1.00  0.00     0.287 C 
ATOM     35  H   UNL     1      17.469  -5.134  14.053  1.00  0.00     0.164 HD
ATOM     36  O   UNL     1      14.811  -6.708  15.019  1.00  0.00    -0.266 OA
BRANCH  34  37
ATOM     37  C   UNL     1      15.943  -7.025  12.987  1.00  0.00     0.196 A 
ATOM     38  N   UNL     1      15.881  -8.305  12.741  1.00  0.00    -0.232 NA
ATOM     39  N   UNL     1      16.108  -6.354  11.819  1.00  0.00    -0.341 N 
ATOM     40  C   UNL     1      16.002  -8.541  11.412  1.00  0.00     0.131 A 
ATOM     41  C   UNL     1      16.147  -7.264  10.845  1.00  0.00     0.104 A 
ATOM     42  H   UNL     1      16.181  -5.337  11.736  1.00  0.00     0.168 HD
ENDBRANCH  34  37
ENDBRANCH   8  33
ENDBRANCH   5   8
ENDBRANCH   3   4
ENDBRANCH   2   3
ENDBRANCH   1   2
BRANCH   1  43
ATOM     43  C   UNL     1      22.858  -1.374  17.221  1.00  0.00     0.000 C 
BRANCH  43  44
ATOM     44  C   UNL     1      23.881  -0.559  16.552  1.00  0.00     0.000 C 
BRANCH  44  45
ATOM     45  C   UNL     1      24.772   0.214  17.574  1.00  0.00     0.000 C 
BRANCH  45  46
ATOM     46  C   UNL     1      25.177   1.490  16.927  1.00  0.00     0.000 C 
BRANCH  46  47
ATOM     47  C   UNL     1      25.516   2.616  17.870  1.00  0.00     0.000 C 
BRANCH  47  48
ATOM     48  C   UNL     1      25.254   3.966  17.231  1.00  0.00     0.000 C 
BRANCH  48  49
ATOM     49  C   UNL     1      25.518   5.122  18.099  1.00  0.00     0.001 C 
BRANCH  49  50
ATOM     50  C   UNL     1      26.080   6.332  18.132  1.00  0.00     0.009 C 
BRANCH  50  51
ATOM     51  C   UNL     1      26.491   7.703  17.602  1.00  0.00    -0.012 C 
BRANCH  51  52
ATOM     52  C   UNL     1      28.012   7.683  17.621  1.00  0.00    -0.018 C 
ATOM     53  C   UNL     1      28.714   8.883  17.059  1.00  0.00     0.033 C 
ATOM     54  C   UNL     1      28.594   7.641  18.966  1.00  0.00     0.033 C 
ATOM     55  C   UNL     1      28.630   6.556  16.822  1.00  0.00     0.033 C 
ATOM     56  C   UNL     1      30.200   8.747  16.959  1.00  0.00     0.101 C 
ATOM     57  C   UNL     1      30.138   7.621  19.000  1.00  0.00     0.101 C 
ATOM     58  C   UNL     1      30.099   6.332  17.077  1.00  0.00     0.101 C 
ATOM     59  C   UNL     1      30.744   8.837  18.398  1.00  0.00     0.051 C 
ATOM     60  C   UNL     1      30.824   7.543  16.432  1.00  0.00     0.051 C 
ATOM     61  C   UNL     1      30.544   6.300  18.483  1.00  0.00     0.051 C 
BRANCH  56  62
ATOM     62  S   UNL     1      30.851  10.175  16.116  1.00  0.00     0.270 S 
ATOM     63  O   UNL     1      31.526   9.774  14.826  1.00  0.00    -0.199 OA
ATOM     64  O   UNL     1      31.815  10.877  17.034  1.00  0.00    -0.199 OA
BRANCH  62  65
ATOM     65  O   UNL     1      29.575  11.214  15.786  1.00  0.00    -0.285 OA
ATOM     66  H   UNL     1      29.081  11.513  16.590  1.00  0.00     0.234 HD
ENDBRANCH  62  65
ENDBRANCH  56  62
BRANCH  57  67
ATOM     67  S   UNL     1      30.595   7.683  20.735  1.00  0.00     0.270 S 
ATOM     68  O   UNL     1      30.619   6.277  21.305  1.00  0.00    -0.199 OA
ATOM     69  O   UNL     1      29.628   8.529  21.506  1.00  0.00    -0.199 OA
BRANCH  67  70
ATOM     70  O   UNL     1      32.129   8.317  20.932  1.00  0.00    -0.285 OA
ATOM     71  H   UNL     1      32.831   7.688  20.704  1.00  0.00     0.234 HD
ENDBRANCH  67  70
ENDBRANCH  57  67
BRANCH  58  72
ATOM     72  S   UNL     1      30.631   4.906  16.173  1.00  0.00     0.270 S 
ATOM     73  O   UNL     1      29.414   4.029  15.951  1.00  0.00    -0.199 OA
ATOM     74  O   UNL     1      31.636   4.170  17.015  1.00  0.00    -0.199 OA
BRANCH  72  75
ATOM     75  O   UNL     1      31.260   5.313  14.683  1.00  0.00    -0.285 OA
ATOM     76  H   UNL     1      30.770   6.056  14.267  1.00  0.00     0.234 HD
ENDBRANCH  72  75
ENDBRANCH  58  72
ENDBRANCH  51  52
BRANCH  51  77
ATOM     77  C   UNL     1      25.859   8.637  18.619  1.00  0.00    -0.018 C 
ATOM     78  C   UNL     1      24.355   8.509  18.674  1.00  0.00     0.033 C 
ATOM     79  C   UNL     1      26.270  10.073  18.518  1.00  0.00     0.033 C 
ATOM     80  C   UNL     1      26.144   8.454  20.054  1.00  0.00     0.033 C 
ATOM     81  C   UNL     1      23.634   9.515  19.517  1.00  0.00     0.101 C 
ATOM     82  C   UNL     1      25.364  11.044  19.278  1.00  0.00     0.101 C 
ATOM     83  C   UNL     1      25.372   9.434  20.971  1.00  0.00     0.101 C 
ATOM     84  C   UNL     1      23.923  10.882  19.033  1.00  0.00     0.051 C 
ATOM     85  C   UNL     1      23.908   9.233  20.960  1.00  0.00     0.051 C 
ATOM     86  C   UNL     1      25.681  10.846  20.759  1.00  0.00     0.051 C 
BRANCH  81  87
ATOM     87  S   UNL     1      21.858   9.283  19.389  1.00  0.00     0.270 S 
ATOM     88  O   UNL     1      21.474   7.857  19.571  1.00  0.00    -0.199 OA
ATOM     89  O   UNL     1      21.212  10.104  20.477  1.00  0.00    -0.199 OA
BRANCH  87  90
ATOM     90  O   UNL     1      21.338   9.905  17.925  1.00  0.00    -0.285 OA
ATOM     91  H   UNL     1      22.059   9.693  17.258  1.00  0.00     0.234 HD
ENDBRANCH  87  90
ENDBRANCH  81  87
BRANCH  82  92
ATOM     92  S   UNL     1      25.803  12.730  18.933  1.00  0.00     0.270 S 
ATOM     93  O   UNL     1      26.152  12.965  17.515  1.00  0.00    -0.199 OA
ATOM     94  O   UNL     1      26.898  13.109  19.874  1.00  0.00    -0.199 OA
BRANCH  92  95
ATOM     95  O   UNL     1      24.441  13.666  19.326  1.00  0.00    -0.285 OA
ATOM     96  H   UNL     1      24.605  14.143  20.185  1.00  0.00     0.234 HD
ENDBRANCH  92  95
ENDBRANCH  82  92
BRANCH  83  97
ATOM     97  S   UNL     1      25.890   9.005  22.647  1.00  0.00     0.270 S 
ATOM     98  O   UNL     1      25.035   9.641  23.677  1.00  0.00    -0.199 OA
ATOM     99  O   UNL     1      25.800   7.514  22.861  1.00  0.00    -0.199 OA
BRANCH  97 100
ATOM    100  O   UNL     1      27.483   9.446  22.878  1.00  0.00    -0.285 OA
ATOM    101  H   UNL     1      28.033   9.287  22.068  1.00  0.00     0.234 HD
ENDBRANCH  97 100
ENDBRANCH  83  97
ENDBRANCH  51  77
BRANCH  51 102
ATOM    102  C   UNL     1      26.010   7.780  16.167  1.00  0.00    -0.018 C 
ATOM    103  C   UNL     1      26.244   6.671  15.241  1.00  0.00     0.033 C 
ATOM    104  C   UNL     1      24.668   8.434  16.020  1.00  0.00     0.033 C 
ATOM    105  C   UNL     1      26.785   8.893  15.387  1.00  0.00     0.033 C 
ATOM    106  C   UNL     1      25.554   6.826  13.863  1.00  0.00     0.101 C 
ATOM    107  C   UNL     1      24.128   8.495  14.616  1.00  0.00     0.101 C 
ATOM    108  C   UNL     1      26.305   9.024  13.943  1.00  0.00     0.101 C 
ATOM    109  C   UNL     1      24.122   7.157  13.984  1.00  0.00     0.051 C 
ATOM    110  C   UNL     1      26.396   7.828  13.107  1.00  0.00     0.051 C 
ATOM    111  C   UNL     1      24.892   9.542  13.826  1.00  0.00     0.051 C 
BRANCH 106 112
ATOM    112  S   UNL     1      25.719   5.301  12.949  1.00  0.00     0.270 S 
ATOM    113  O   UNL     1      26.159   5.647  11.564  1.00  0.00    -0.199 OA
ATOM    114  O   UNL     1      24.354   4.637  12.840  1.00  0.00    -0.199 OA
BRANCH 112 115
ATOM    115  O   UNL     1      26.772   4.253  13.705  1.00  0.00    -0.285 OA
ATOM    116  H   UNL     1      27.231   4.716  14.434  1.00  0.00     0.234 HD
ENDBRANCH 112 115
ENDBRANCH 106 112
BRANCH 107 117
ATOM    117  S   UNL     1      22.459   9.107  14.711  1.00  0.00     0.270 S 
ATOM    118  O   UNL     1      21.765   8.271  15.778  1.00  0.00    -0.199 OA
ATOM    119  O   UNL     1      21.732   8.955  13.439  1.00  0.00    -0.199 OA
BRANCH 117 120
ATOM    120  O   UNL     1      22.471  10.677  15.299  1.00  0.00    -0.285 OA
ATOM    121  H   UNL     1      21.656  11.122  14.971  1.00  0.00     0.234 HD
ENDBRANCH 117 120
ENDBRANCH 107 117
BRANCH 108 122
ATOM    122  S   UNL     1      27.340  10.292  13.217  1.00  0.00     0.270 S 
ATOM    123  O   UNL     1      26.898  10.433  11.798  1.00  0.00    -0.199 OA
ATOM    124  O   UNL     1      27.221  11.570  13.986  1.00  0.00    -0.199 OA
BRANCH 122 125
ATOM    125  O   UNL     1      28.910   9.698  13.211  1.00  0.00    -0.285 OA
ATOM    126  H   UNL     1      29.378  10.112  13.984  1.00  0.00     0.234 HD
ENDBRANCH 122 125
ENDBRANCH 108 122
ENDBRANCH  51 102
ENDBRANCH  50  51
ENDBRANCH  49  50
ENDBRANCH  48  49
ENDBRANCH  47  48
ENDBRANCH  46  47
ENDBRANCH  45  46
ENDBRANCH  44  45
ENDBRANCH  43  44
ENDBRANCH   1  43
TORSDOF 43
ENDMDL
MODEL 10
REMARK VINA RESULT:   -10.080      1.078      6.084
REMARK INTER + INTRA:         -41.596
REMARK INTER:                 -33.059
REMARK INTRA:                  -8.538
REMARK UNBOUND:                -8.830
REMARK SMILES NC(=O)c1ccccc1OCc1cccc(C(=O)NC[C@@H](NC(=O)c2ncc[nH]2)C(=O)NCCCCCCCCCCCC([C@]23C[C@]4(S(=O)(=O)O)C[C@](S(=O)(=O)O)(C2)C[C@](S(=O)(=O)O)(C3)C4)([C@]23C[C@]4(S(=O)(=O)O)C[C@](S(=O)(=O)O)(C2)C[C@](S(=O)(=O)O)(C3)C4)[C@]23C[C@]4(S(=O)(=O)O)C[C@](S(=O)(=O)O)(C2)C[C@](S(=O)(=O)O)(C3)C4)c1
REMARK SMILES IDX 35 1 34 2 33 3 32 4 30 5 31 6 21 8 20 9 19 10 18 11 17 12
REMARK SMILES IDX 16 14 15 15 111 16 14 17 12 18 13 19 11 20 10 21 9 22 4 23
REMARK SMILES IDX 8 24 5 25 7 26 6 27 2 28 1 29 3 30 22 33 23 34 24 36 25 37
REMARK SMILES IDX 26 38 29 39 27 40 28 41 36 43 37 44 38 45 39 46 40 47 41 48
REMARK SMILES IDX 42 49 43 50 44 51 67 52 80 53 87 54 68 55 75 56 82 57 69 58
REMARK SMILES IDX 81 59 74 60 88 61 76 62 77 63 78 64 79 65 83 67 84 68 85 69
REMARK SMILES IDX 86 70 70 72 71 73 72 74 73 75 45 77 46 78 58 79 65 80 47 81
REMARK SMILES IDX 53 82 60 83 52 84 66 85 59 86 48 87 49 88 50 89 51 90 54 92
REMARK SMILES IDX 55 93 56 94 57 95 61 97 62 98 63 99 64 100 89 102 102 103
REMARK SMILES IDX 109 104 90 105 97 106 104 107 91 108 103 109 96 110 110 111
REMARK SMILES IDX 98 112 99 113 100 114 101 115 105 117 106 118 107 119
REMARK SMILES IDX 108 120 92 122 93 123 94 124 95 125
REMARK H PARENT 32 7 19 13 1 31 1 32 22 35 29 42 79 66 86 71 73 76 51 91 57 96
REMARK H PARENT 64 101 101 116 108 121 95 126
REMARK Flexibility Score: inf
ROOT
ATOM      1  C   UNL     1      21.695  -1.907  16.313  1.00  0.00     0.002 C 
ENDROOT
BRANCH   1   2
ATOM      2  C   UNL     1      20.628  -2.622  17.063  1.00  0.00     0.021 C 
BRANCH   2   3
ATOM      3  C   UNL     1      20.298  -3.982  16.613  1.00  0.00     0.116 C 
BRANCH   3   4
ATOM      4  N   UNL     1      19.044  -4.296  16.037  1.00  0.00    -0.354 N 
ATOM      5  C   UNL     1      17.840  -4.560  16.715  1.00  0.00     0.244 C 
ATOM      6  O   UNL     1      17.823  -4.596  17.967  1.00  0.00    -0.273 OA
ATOM      7  H   UNL     1      18.989  -4.343  14.978  1.00  0.00     0.163 HD
BRANCH   5   8
ATOM      8  C   UNL     1      16.578  -4.781  15.978  1.00  0.00     0.191 C 
BRANCH   8   9
ATOM      9  C   UNL     1      15.730  -3.574  15.834  1.00  0.00     0.151 C 
BRANCH   9  10
ATOM     10  N   UNL     1      16.517  -2.335  15.804  1.00  0.00    -0.349 N 
ATOM     11  O   UNL     1      15.452  -1.689  13.876  1.00  0.00    -0.269 OA
ATOM     12  C   UNL     1      16.320  -1.415  14.750  1.00  0.00     0.251 C 
ATOM     13  H   UNL     1      17.209  -2.121  16.541  1.00  0.00     0.163 HD
BRANCH  12  14
ATOM     14  C   UNL     1      17.079  -0.205  14.666  1.00  0.00     0.040 A 
ATOM     15  C   UNL     1      16.875   0.725  13.665  1.00  0.00     0.014 A 
ATOM     16  C   UNL     1      18.034   0.071  15.626  1.00  0.00     0.021 A 
ATOM     17  C   UNL     1      17.625   1.889  13.660  1.00  0.00     0.001 A 
ATOM     18  C   UNL     1      18.790   1.252  15.615  1.00  0.00    -0.010 A 
ATOM     19  C   UNL     1      18.565   2.160  14.608  1.00  0.00     0.007 A 
BRANCH  18  20
ATOM     20  C   UNL     1      19.777   1.452  16.683  1.00  0.00     0.265 C 
BRANCH  20  21
ATOM     21  O   UNL     1      19.128   1.503  17.937  1.00  0.00    -0.488 OA
BRANCH  21  22
ATOM     22  C   UNL     1      19.853   2.007  19.030  1.00  0.00     0.132 A 
ATOM     23  C   UNL     1      19.165   2.390  20.144  1.00  0.00     0.081 A 
ATOM     24  C   UNL     1      21.216   2.106  18.974  1.00  0.00     0.047 A 
ATOM     25  C   UNL     1      19.848   2.890  21.249  1.00  0.00     0.018 A 
ATOM     26  C   UNL     1      21.896   2.604  20.077  1.00  0.00     0.004 A 
ATOM     27  C   UNL     1      21.222   2.991  21.200  1.00  0.00     0.001 A 
BRANCH  23  28
ATOM     28  C   UNL     1      17.702   2.305  20.177  1.00  0.00     0.252 C 
ATOM     29  N   UNL     1      16.995   2.677  19.009  1.00  0.00    -0.365 N 
ATOM     30  O   UNL     1      17.131   1.914  21.220  1.00  0.00    -0.269 OA
ATOM     31  H   UNL     1      16.833   3.678  18.762  1.00  0.00     0.159 HD
ATOM     32  H   UNL     1      16.610   1.958  18.356  1.00  0.00     0.159 HD
ENDBRANCH  23  28
ENDBRANCH  21  22
ENDBRANCH  20  21
ENDBRANCH  18  20
ENDBRANCH  12  14
ENDBRANCH   9  10
ENDBRANCH   8   9
BRANCH   8  33
ATOM     33  N   UNL     1      16.646  -5.579  14.795  1.00  0.00    -0.336 N 
ATOM     34  C   UNL     1      15.702  -6.525  14.358  1.00  0.00     0.287 C 
ATOM     35  H   UNL     1      17.509  -5.446  14.186  1.00  0.00     0.164 HD
ATOM     36  O   UNL     1      14.684  -6.783  15.026  1.00  0.00    -0.266 OA
BRANCH  34  37
ATOM     37  C   UNL     1      15.903  -7.241  13.073  1.00  0.00     0.196 A 
ATOM     38  N   UNL     1      15.903  -6.724  11.875  1.00  0.00    -0.232 NA
ATOM     39  N   UNL     1      16.213  -8.560  12.989  1.00  0.00    -0.341 N 
ATOM     40  C   UNL     1      16.210  -7.665  10.949  1.00  0.00     0.131 A 
ATOM     41  C   UNL     1      16.404  -8.837  11.699  1.00  0.00     0.104 A 
ATOM     42  H   UNL     1      16.284  -9.193  13.788  1.00  0.00     0.168 HD
ENDBRANCH  34  37
ENDBRANCH   8  33
ENDBRANCH   5   8
ENDBRANCH   3   4
ENDBRANCH   2   3
ENDBRANCH   1   2
BRANCH   1  43
ATOM     43  C   UNL     1      22.537  -1.081  17.285  1.00  0.00     0.000 C 
BRANCH  43  44
ATOM     44  C   UNL     1      23.766  -0.576  16.657  1.00  0.00     0.000 C 
BRANCH  44  45
ATOM     45  C   UNL     1      24.536   0.408  17.591  1.00  0.00     0.000 C 
BRANCH  45  46
ATOM     46  C   UNL     1      24.354   1.776  17.036  1.00  0.00     0.000 C 
BRANCH  46  47
ATOM     47  C   UNL     1      24.912   2.895  17.877  1.00  0.00     0.000 C 
BRANCH  47  48
ATOM     48  C   UNL     1      25.596   3.940  17.017  1.00  0.00     0.000 C 
BRANCH  48  49
ATOM     49  C   UNL     1      25.436   5.324  17.483  1.00  0.00     0.001 C 
BRANCH  49  50
ATOM     50  C   UNL     1      26.087   6.476  17.665  1.00  0.00     0.009 C 
BRANCH  50  51
ATOM     51  C   UNL     1      26.653   7.842  17.288  1.00  0.00    -0.012 C 
BRANCH  51  52
ATOM     52  C   UNL     1      26.236   8.044  15.838  1.00  0.00    -0.018 C 
ATOM     53  C   UNL     1      24.889   8.660  15.599  1.00  0.00     0.033 C 
ATOM     54  C   UNL     1      27.089   8.974  15.093  1.00  0.00     0.033 C 
ATOM     55  C   UNL     1      26.143   6.766  15.033  1.00  0.00     0.033 C 
ATOM     56  C   UNL     1      24.464   8.692  14.166  1.00  0.00     0.101 C 
ATOM     57  C   UNL     1      26.677   9.189  13.620  1.00  0.00     0.101 C 
ATOM     58  C   UNL     1      26.039   6.964  13.543  1.00  0.00     0.101 C 
ATOM     59  C   UNL     1      25.319   9.777  13.481  1.00  0.00     0.051 C 
ATOM     60  C   UNL     1      24.618   7.536  13.295  1.00  0.00     0.051 C 
ATOM     61  C   UNL     1      26.972   7.923  12.921  1.00  0.00     0.051 C 
BRANCH  56  62
ATOM     62  S   UNL     1      22.787   9.286  14.078  1.00  0.00     0.270 S 
ATOM     63  O   UNL     1      22.437   9.697  12.668  1.00  0.00    -0.199 OA
ATOM     64  O   UNL     1      22.635  10.441  15.030  1.00  0.00    -0.199 OA
BRANCH  62  65
ATOM     65  O   UNL     1      21.769   8.048  14.574  1.00  0.00    -0.285 OA
ATOM     66  H   UNL     1      21.095   7.784  13.898  1.00  0.00     0.234 HD
ENDBRANCH  62  65
ENDBRANCH  56  62
BRANCH  57  67
ATOM     67  S   UNL     1      27.793  10.435  12.970  1.00  0.00     0.270 S 
ATOM     68  O   UNL     1      27.796  11.643  13.888  1.00  0.00    -0.199 OA
ATOM     69  O   UNL     1      27.381  10.845  11.589  1.00  0.00    -0.199 OA
BRANCH  67  70
ATOM     70  O   UNL     1      29.363   9.864  12.908  1.00  0.00    -0.285 OA
ATOM     71  H   UNL     1      29.412   8.909  12.749  1.00  0.00     0.234 HD
ENDBRANCH  67  70
ENDBRANCH  57  67
BRANCH  58  72
ATOM     72  S   UNL     1      26.075   5.383  12.746  1.00  0.00     0.270 S 
ATOM     73  O   UNL     1      27.323   4.664  13.218  1.00  0.00    -0.199 OA
ATOM     74  O   UNL     1      26.157   5.613  11.262  1.00  0.00    -0.199 OA
BRANCH  72  75
ATOM     75  O   UNL     1      24.751   4.453  13.151  1.00  0.00    -0.285 OA
ATOM     76  H   UNL     1      23.909   4.949  13.054  1.00  0.00     0.234 HD
ENDBRANCH  72  75
ENDBRANCH  58  72
ENDBRANCH  51  52
BRANCH  51  77
ATOM     77  C   UNL     1      28.143   7.634  17.492  1.00  0.00    -0.018 C 
ATOM     78  C   UNL     1      28.977   8.723  16.861  1.00  0.00     0.033 C 
ATOM     79  C   UNL     1      28.662   6.280  17.121  1.00  0.00     0.033 C 
ATOM     80  C   UNL     1      28.708   7.691  18.854  1.00  0.00     0.033 C 
ATOM     81  C   UNL     1      30.459   8.506  16.857  1.00  0.00     0.101 C 
ATOM     82  C   UNL     1      30.182   6.204  16.974  1.00  0.00     0.101 C 
ATOM     83  C   UNL     1      30.248   7.533  18.895  1.00  0.00     0.101 C 
ATOM     84  C   UNL     1      30.786   7.255  16.141  1.00  0.00     0.051 C 
ATOM     85  C   UNL     1      30.978   8.646  18.253  1.00  0.00     0.051 C 
ATOM     86  C   UNL     1      30.747   6.255  18.393  1.00  0.00     0.051 C 
BRANCH  81  87
ATOM     87  S   UNL     1      31.286   9.838  15.983  1.00  0.00     0.270 S 
ATOM     88  O   UNL     1      32.450  10.360  16.748  1.00  0.00    -0.199 OA
ATOM     89  O   UNL     1      31.776   9.285  14.668  1.00  0.00    -0.199 OA
BRANCH  87  90
ATOM     90  O   UNL     1      30.164  11.029  15.631  1.00  0.00    -0.285 OA
ATOM     91  H   UNL     1      30.668  11.758  15.157  1.00  0.00     0.234 HD
ENDBRANCH  87  90
ENDBRANCH  81  87
BRANCH  82  92
ATOM     92  S   UNL     1      30.685   4.626  16.333  1.00  0.00     0.270 S 
ATOM     93  O   UNL     1      29.549   3.727  16.034  1.00  0.00    -0.199 OA
ATOM     94  O   UNL     1      31.654   4.038  17.304  1.00  0.00    -0.199 OA
BRANCH  92  95
ATOM     95  O   UNL     1      31.529   4.943  14.893  1.00  0.00    -0.285 OA
ATOM     96  H   UNL     1      31.482   4.145  14.300  1.00  0.00     0.234 HD
ENDBRANCH  92  95
ENDBRANCH  82  92
BRANCH  83  97
ATOM     97  S   UNL     1      30.677   7.640  20.645  1.00  0.00     0.270 S 
ATOM     98  O   UNL     1      30.788   6.304  21.277  1.00  0.00    -0.199 OA
ATOM     99  O   UNL     1      32.013   8.322  20.819  1.00  0.00    -0.199 OA
BRANCH  97 100
ATOM    100  O   UNL     1      29.540   8.558  21.452  1.00  0.00    -0.285 OA
ATOM    101  H   UNL     1      29.820   9.506  21.532  1.00  0.00     0.234 HD
ENDBRANCH  97 100
ENDBRANCH  83  97
ENDBRANCH  51  77
BRANCH  51 102
ATOM    102  C   UNL     1      25.949   8.864  18.157  1.00  0.00    -0.018 C 
ATOM    103  C   UNL     1      26.477  10.222  18.290  1.00  0.00     0.033 C 
ATOM    104  C   UNL     1      24.453   8.788  18.078  1.00  0.00     0.033 C 
ATOM    105  C   UNL     1      26.022   8.446  19.663  1.00  0.00     0.033 C 
ATOM    106  C   UNL     1      25.563  11.195  19.076  1.00  0.00     0.101 C 
ATOM    107  C   UNL     1      23.709   9.813  18.891  1.00  0.00     0.101 C 
ATOM    108  C   UNL     1      25.293   9.436  20.570  1.00  0.00     0.101 C 
ATOM    109  C   UNL     1      24.173  11.184  18.585  1.00  0.00     0.051 C 
ATOM    110  C   UNL     1      25.748  10.825  20.530  1.00  0.00     0.051 C 
ATOM    111  C   UNL     1      23.798   9.451  20.363  1.00  0.00     0.051 C 
BRANCH 106 112
ATOM    112  S   UNL     1      26.213  12.853  18.935  1.00  0.00     0.270 S 
ATOM    113  O   UNL     1      26.976  12.933  17.654  1.00  0.00    -0.199 OA
ATOM    114  O   UNL     1      27.199  13.096  20.068  1.00  0.00    -0.199 OA
BRANCH 112 115
ATOM    115  O   UNL     1      24.997  13.990  19.022  1.00  0.00    -0.285 OA
ATOM    116  H   UNL     1      24.991  14.528  18.206  1.00  0.00     0.234 HD
ENDBRANCH 112 115
ENDBRANCH 106 112
BRANCH 107 117
ATOM    117  S   UNL     1      21.982   9.672  18.481  1.00  0.00     0.270 S 
ATOM    118  O   UNL     1      21.596  10.993  17.830  1.00  0.00    -0.199 OA
ATOM    119  O   UNL     1      21.137   9.460  19.668  1.00  0.00    -0.199 OA
BRANCH 117 120
ATOM    120  O   UNL     1      21.783   8.505  17.293  1.00  0.00    -0.285 OA
ATOM    121  H   UNL     1      21.843   7.624  17.731  1.00  0.00     0.234 HD
ENDBRANCH 117 120
ENDBRANCH 107 117
BRANCH 108 122
ATOM    122  S   UNL     1      25.539   8.817  22.233  1.00  0.00     0.270 S 
ATOM    123  O   UNL     1      25.389   7.334  22.155  1.00  0.00    -0.199 OA
ATOM    124  O   UNL     1      26.878   9.233  22.755  1.00  0.00    -0.199 OA
BRANCH 122 125
ATOM    125  O   UNL     1      24.279   9.414  23.169  1.00  0.00    -0.285 OA
ATOM    126  H   UNL     1      23.537   8.756  23.108  1.00  0.00     0.234 HD
ENDBRANCH 122 125
ENDBRANCH 108 122
ENDBRANCH  51 102
ENDBRANCH  50  51
ENDBRANCH  49  50
ENDBRANCH  48  49
ENDBRANCH  47  48
ENDBRANCH  46  47
ENDBRANCH  45  46
ENDBRANCH  44  45
ENDBRANCH  43  44
ENDBRANCH   1  43
TORSDOF 43
ENDMDL
