MODEL 1
REMARK VINA RESULT:   -11.077      0.000      0.000
REMARK INTER + INTRA:         -47.540
REMARK INTER:                 -37.304
REMARK INTRA:                 -10.237
REMARK UNBOUND:               -10.237
REMARK SMILES Cc1cc(OCC(=O)N[C@H](CNC(=O)c2cccc(COc3ccccc3C(N)=O)c2)C(=O)NCCCCCCCCCCCC([C@]23C[C@]4(S(=O)(=O)O)C[C@](S(=O)(=O)O)(C2)C[C@](S(=O)(=O)O)(C3)C4)([C@]23C[C@]4(S(=O)(=O)O)C[C@](S(=O)(=O)O)(C2)C[C@](S(=O)(=O)O)(C3)C4)[C@]23C[C@]4(S(=O)(=O)O)C[C@](S(=O)(=O)O)(C2)C[C@](S(=O)(=O)O)(C3)C4)c2c3c(c(=O)oc2c1)CCC3
REMARK SMILES IDX 37 1 36 2 35 3 34 4 32 5 33 6 10 8 11 9 12 10 14 11 13 12
REMARK SMILES IDX 15 14 16 15 31 16 17 17 19 18 18 19 20 20 21 21 22 22 27 23
REMARK SMILES IDX 23 24 26 25 24 26 25 27 28 28 29 29 30 30 9 33 7 34 8 36
REMARK SMILES IDX 6 37 5 38 4 39 3 40 113 41 2 42 119 43 114 44 1 45 120 46
REMARK SMILES IDX 118 47 115 48 123 49 116 50 121 51 122 52 117 53 38 54 39 55
REMARK SMILES IDX 40 56 41 57 42 58 43 59 44 60 45 61 46 62 69 63 82 64 89 65
REMARK SMILES IDX 70 66 77 67 84 68 71 69 83 70 76 71 90 72 78 73 79 74 80 75
REMARK SMILES IDX 81 76 85 78 86 79 87 80 88 81 72 83 73 84 74 85 75 86 47 88
REMARK SMILES IDX 48 89 60 90 67 91 49 92 55 93 62 94 54 95 68 96 61 97 50 98
REMARK SMILES IDX 51 99 52 100 53 101 56 103 57 104 58 105 59 106 63 108
REMARK SMILES IDX 64 109 65 110 66 111 91 113 104 114 111 115 92 116 99 117
REMARK SMILES IDX 106 118 93 119 105 120 98 121 112 122 100 123 101 124
REMARK SMILES IDX 102 125 103 126 107 128 108 129 109 130 110 131 94 133
REMARK SMILES IDX 95 134 96 135 97 136
REMARK H PARENT 34 7 12 13 29 31 29 32 9 35 81 77 88 82 75 87 53 102 59 107
REMARK H PARENT 66 112 103 127 110 132 97 137
REMARK Flexibility Score: inf
ROOT
ATOM      1  C   UNL     1      22.532  -0.029  13.081  1.00  0.00     0.002 C 
ENDROOT
BRANCH   1   2
ATOM      2  C   UNL     1      22.630  -1.464  13.392  1.00  0.00     0.021 C 
BRANCH   2   3
ATOM      3  C   UNL     1      21.560  -2.205  14.071  1.00  0.00     0.116 C 
BRANCH   3   4
ATOM      4  N   UNL     1      20.281  -1.601  14.226  1.00  0.00    -0.354 N 
ATOM      5  C   UNL     1      19.198  -2.056  14.975  1.00  0.00     0.244 C 
ATOM      6  O   UNL     1      19.225  -3.129  15.604  1.00  0.00    -0.273 OA
ATOM      7  H   UNL     1      20.109  -0.670  13.705  1.00  0.00     0.163 HD
BRANCH   5   8
ATOM      8  C   UNL     1      17.907  -1.291  15.088  1.00  0.00     0.190 C 
BRANCH   8   9
ATOM      9  C   UNL     1      16.702  -2.034  14.729  1.00  0.00     0.151 C 
BRANCH   9  10
ATOM     10  N   UNL     1      16.829  -3.339  14.171  1.00  0.00    -0.349 N 
ATOM     11  O   UNL     1      15.042  -3.316  12.694  1.00  0.00    -0.269 OA
ATOM     12  C   UNL     1      16.029  -3.941  13.196  1.00  0.00     0.251 C 
ATOM     13  H   UNL     1      17.645  -3.957  14.545  1.00  0.00     0.163 HD
BRANCH  12  14
ATOM     14  C   UNL     1      16.256  -5.273  12.698  1.00  0.00     0.040 A 
ATOM     15  C   UNL     1      17.133  -6.131  13.343  1.00  0.00     0.014 A 
ATOM     16  C   UNL     1      15.597  -5.768  11.606  1.00  0.00     0.021 A 
ATOM     17  C   UNL     1      17.309  -7.411  12.884  1.00  0.00     0.001 A 
ATOM     18  C   UNL     1      15.762  -7.068  11.124  1.00  0.00    -0.010 A 
ATOM     19  C   UNL     1      16.639  -7.899  11.784  1.00  0.00     0.007 A 
BRANCH  18  20
ATOM     20  C   UNL     1      15.046  -7.583   9.945  1.00  0.00     0.265 C 
BRANCH  20  21
ATOM     21  O   UNL     1      15.087  -8.963   9.804  1.00  0.00    -0.488 OA
BRANCH  21  22
ATOM     22  C   UNL     1      14.755  -9.635   8.664  1.00  0.00     0.132 A 
ATOM     23  C   UNL     1      15.753  -9.713   7.679  1.00  0.00     0.081 A 
ATOM     24  C   UNL     1      13.532 -10.214   8.443  1.00  0.00     0.047 A 
ATOM     25  C   UNL     1      15.466 -10.381   6.508  1.00  0.00     0.018 A 
ATOM     26  C   UNL     1      13.302 -10.872   7.245  1.00  0.00     0.004 A 
ATOM     27  C   UNL     1      14.251 -10.960   6.282  1.00  0.00     0.001 A 
BRANCH  23  28
ATOM     28  C   UNL     1      17.039  -9.099   7.916  1.00  0.00     0.252 C 
ATOM     29  N   UNL     1      17.928  -9.703   8.845  1.00  0.00    -0.365 N 
ATOM     30  O   UNL     1      17.358  -8.056   7.311  1.00  0.00    -0.269 OA
ATOM     31  H   UNL     1      18.057  -9.347   9.811  1.00  0.00     0.159 HD
ATOM     32  H   UNL     1      18.467 -10.552   8.512  1.00  0.00     0.159 HD
ENDBRANCH  23  28
ENDBRANCH  21  22
ENDBRANCH  20  21
ENDBRANCH  18  20
ENDBRANCH  12  14
ENDBRANCH   9  10
ENDBRANCH   8   9
BRANCH   8  33
ATOM     33  N   UNL     1      17.846  -0.614  16.340  1.00  0.00    -0.340 N 
ATOM     34  C   UNL     1      18.183   0.751  16.463  1.00  0.00     0.258 C 
ATOM     35  H   UNL     1      17.572  -1.157  17.214  1.00  0.00     0.164 HD
ATOM     36  O   UNL     1      18.555   1.400  15.432  1.00  0.00    -0.271 OA
BRANCH  34  37
ATOM     37  C   UNL     1      18.110   1.456  17.774  1.00  0.00     0.329 C 
BRANCH  37  38
ATOM     38  O   UNL     1      19.115   1.030  18.641  1.00  0.00    -0.483 OA
BRANCH  38  39
ATOM     39  C   UNL     1      19.772   1.941  19.445  1.00  0.00     0.131 A 
ATOM     40  C   UNL     1      19.128   2.782  20.330  1.00  0.00     0.050 A 
ATOM     41  C   UNL     1      21.165   1.963  19.310  1.00  0.00     0.063 A 
ATOM     42  C   UNL     1      19.859   3.666  21.099  1.00  0.00    -0.044 A 
ATOM     43  C   UNL     1      21.879   2.844  20.079  1.00  0.00     0.142 A 
ATOM     44  C   UNL     1      21.783   1.097  18.409  1.00  0.00    -0.023 A 
ATOM     45  C   UNL     1      19.158   4.584  22.061  1.00  0.00     0.044 C 
ATOM     46  C   UNL     1      21.227   3.686  20.963  1.00  0.00     0.051 A 
ATOM     47  O   UNL     1      23.204   2.877  19.963  1.00  0.00    -0.422 OA
ATOM     48  C   UNL     1      23.162   1.175  18.329  1.00  0.00     0.042 A 
ATOM     49  C   UNL     1      21.288   0.070  17.480  1.00  0.00     0.037 C 
ATOM     50  C   UNL     1      23.813   2.081  19.129  1.00  0.00     0.339 A 
ATOM     51  C   UNL     1      23.687   0.194  17.332  1.00  0.00     0.044 C 
ATOM     52  C   UNL     1      22.540  -0.785  17.235  1.00  0.00     0.010 C 
ATOM     53  O   UNL     1      25.072   2.140  19.045  1.00  0.00    -0.246 OA
ENDBRANCH  38  39
ENDBRANCH  37  38
ENDBRANCH  34  37
ENDBRANCH   8  33
ENDBRANCH   5   8
ENDBRANCH   3   4
ENDBRANCH   2   3
ENDBRANCH   1   2
BRANCH   1  54
ATOM     54  C   UNL     1      23.483   0.877  13.868  1.00  0.00     0.000 C 
BRANCH  54  55
ATOM     55  C   UNL     1      22.761   2.090  14.344  1.00  0.00     0.000 C 
BRANCH  55  56
ATOM     56  C   UNL     1      23.646   3.034  15.100  1.00  0.00     0.000 C 
BRANCH  56  57
ATOM     57  C   UNL     1      25.068   2.517  15.031  1.00  0.00     0.000 C 
BRANCH  57  58
ATOM     58  C   UNL     1      25.931   3.397  15.912  1.00  0.00     0.000 C 
BRANCH  58  59
ATOM     59  C   UNL     1      25.095   4.516  16.540  1.00  0.00     0.000 C 
BRANCH  59  60
ATOM     60  C   UNL     1      25.908   5.651  16.972  1.00  0.00     0.001 C 
BRANCH  60  61
ATOM     61  C   UNL     1      25.830   7.002  17.119  1.00  0.00     0.009 C 
BRANCH  61  62
ATOM     62  C   UNL     1      26.102   8.409  16.708  1.00  0.00    -0.012 C 
BRANCH  62  63
ATOM     63  C   UNL     1      27.006   8.964  17.816  1.00  0.00    -0.018 C 
ATOM     64  C   UNL     1      26.274   9.113  19.139  1.00  0.00     0.033 C 
ATOM     65  C   UNL     1      28.130   8.036  18.171  1.00  0.00     0.033 C 
ATOM     66  C   UNL     1      27.548  10.300  17.701  1.00  0.00     0.033 C 
ATOM     67  C   UNL     1      27.160   9.437  20.310  1.00  0.00     0.101 C 
ATOM     68  C   UNL     1      29.061   8.538  19.268  1.00  0.00     0.101 C 
ATOM     69  C   UNL     1      28.482  10.704  18.869  1.00  0.00     0.101 C 
ATOM     70  C   UNL     1      28.274   8.509  20.558  1.00  0.00     0.051 C 
ATOM     71  C   UNL     1      27.731  10.830  20.166  1.00  0.00     0.051 C 
ATOM     72  C   UNL     1      29.683   9.850  18.982  1.00  0.00     0.051 C 
BRANCH  67  73
ATOM     73  S   UNL     1      26.153   9.510  21.792  1.00  0.00     0.270 S 
ATOM     74  O   UNL     1      25.499   8.208  22.059  1.00  0.00    -0.199 OA
ATOM     75  O   UNL     1      27.130   9.757  22.930  1.00  0.00    -0.199 OA
BRANCH  73  76
ATOM     76  O   UNL     1      25.112  10.809  21.769  1.00  0.00    -0.285 OA
ATOM     77  H   UNL     1      24.227  10.465  22.102  1.00  0.00     0.234 HD
ENDBRANCH  73  76
ENDBRANCH  67  73
BRANCH  68  78
ATOM     78  S   UNL     1      30.370   7.337  19.464  1.00  0.00     0.270 S 
ATOM     79  O   UNL     1      30.194   6.573  20.724  1.00  0.00    -0.199 OA
ATOM     80  O   UNL     1      31.660   8.133  19.507  1.00  0.00    -0.199 OA
BRANCH  78  81
ATOM     81  O   UNL     1      30.447   6.321  18.116  1.00  0.00    -0.285 OA
ATOM     82  H   UNL     1      29.542   5.954  17.924  1.00  0.00     0.234 HD
ENDBRANCH  78  81
ENDBRANCH  68  78
BRANCH  69  83
ATOM     83  S   UNL     1      29.068  12.365  18.542  1.00  0.00     0.270 S 
ATOM     84  O   UNL     1      30.302  12.360  17.731  1.00  0.00    -0.199 OA
ATOM     85  O   UNL     1      29.430  13.007  19.875  1.00  0.00    -0.199 OA
BRANCH  83  86
ATOM     86  O   UNL     1      27.907  13.288  17.801  1.00  0.00    -0.285 OA
ATOM     87  H   UNL     1      28.222  13.557  16.909  1.00  0.00     0.234 HD
ENDBRANCH  83  86
ENDBRANCH  69  83
ENDBRANCH  62  63
BRANCH  62  88
ATOM     88  C   UNL     1      26.736   8.421  15.331  1.00  0.00    -0.018 C 
ATOM     89  C   UNL     1      28.209   8.101  15.305  1.00  0.00     0.033 C 
ATOM     90  C   UNL     1      26.478   9.505  14.397  1.00  0.00     0.033 C 
ATOM     91  C   UNL     1      26.369   7.143  14.565  1.00  0.00     0.033 C 
ATOM     92  C   UNL     1      28.770   7.912  13.886  1.00  0.00     0.101 C 
ATOM     93  C   UNL     1      27.231   9.422  13.055  1.00  0.00     0.101 C 
ATOM     94  C   UNL     1      26.739   7.124  13.142  1.00  0.00     0.101 C 
ATOM     95  C   UNL     1      28.683   9.245  13.172  1.00  0.00     0.051 C 
ATOM     96  C   UNL     1      28.249   6.812  13.090  1.00  0.00     0.051 C 
ATOM     97  C   UNL     1      26.554   8.284  12.281  1.00  0.00     0.051 C 
BRANCH  92  98
ATOM     98  S   UNL     1      30.522   7.581  14.104  1.00  0.00     0.270 S 
ATOM     99  O   UNL     1      30.908   7.735  15.553  1.00  0.00    -0.199 OA
ATOM    100  O   UNL     1      31.370   8.497  13.301  1.00  0.00    -0.199 OA
BRANCH  98 101
ATOM    101  O   UNL     1      30.868   6.002  13.636  1.00  0.00    -0.285 OA
ATOM    102  H   UNL     1      30.335   5.340  14.146  1.00  0.00     0.234 HD
ENDBRANCH  98 101
ENDBRANCH  92  98
BRANCH  93 103
ATOM    103  S   UNL     1      26.896  10.907  12.132  1.00  0.00     0.270 S 
ATOM    104  O   UNL     1      28.227  11.465  11.717  1.00  0.00    -0.199 OA
ATOM    105  O   UNL     1      26.130  10.609  10.876  1.00  0.00    -0.199 OA
BRANCH 103 106
ATOM    106  O   UNL     1      26.146  12.022  13.106  1.00  0.00    -0.285 OA
ATOM    107  H   UNL     1      25.511  11.622  13.735  1.00  0.00     0.234 HD
ENDBRANCH 103 106
ENDBRANCH  93 103
BRANCH  94 108
ATOM    108  S   UNL     1      25.971   5.711  12.348  1.00  0.00     0.270 S 
ATOM    109  O   UNL     1      26.820   4.507  12.719  1.00  0.00    -0.199 OA
ATOM    110  O   UNL     1      24.599   5.459  12.875  1.00  0.00    -0.199 OA
BRANCH 108 111
ATOM    111  O   UNL     1      26.037   5.861  10.693  1.00  0.00    -0.285 OA
ATOM    112  H   UNL     1      25.407   6.564  10.407  1.00  0.00     0.234 HD
ENDBRANCH 108 111
ENDBRANCH  94 108
ENDBRANCH  62  88
BRANCH  62 113
ATOM    113  C   UNL     1      24.755   9.160  16.737  1.00  0.00    -0.018 C 
ATOM    114  C   UNL     1      23.727   8.700  15.772  1.00  0.00     0.033 C 
ATOM    115  C   UNL     1      23.926   8.681  17.953  1.00  0.00     0.033 C 
ATOM    116  C   UNL     1      24.753  10.612  16.655  1.00  0.00     0.033 C 
ATOM    117  C   UNL     1      22.354   9.392  15.924  1.00  0.00     0.101 C 
ATOM    118  C   UNL     1      22.737   9.521  18.227  1.00  0.00     0.101 C 
ATOM    119  C   UNL     1      23.354  11.274  16.727  1.00  0.00     0.101 C 
ATOM    120  C   UNL     1      21.671   9.113  17.184  1.00  0.00     0.051 C 
ATOM    121  C   UNL     1      22.484  10.843  15.618  1.00  0.00     0.051 C 
ATOM    122  C   UNL     1      22.855  10.980  18.117  1.00  0.00     0.051 C 
BRANCH 117 123
ATOM    123  S   UNL     1      21.327   8.700  14.612  1.00  0.00     0.270 S 
ATOM    124  O   UNL     1      20.005   8.293  15.149  1.00  0.00    -0.199 OA
ATOM    125  O   UNL     1      22.024   7.461  14.079  1.00  0.00    -0.199 OA
BRANCH 123 126
ATOM    126  O   UNL     1      21.181   9.766  13.336  1.00  0.00    -0.285 OA
ATOM    127  H   UNL     1      21.754   9.561  12.569  1.00  0.00     0.234 HD
ENDBRANCH 123 126
ENDBRANCH 117 123
BRANCH 118 128
ATOM    128  S   UNL     1      22.017   9.091  19.794  1.00  0.00     0.270 S 
ATOM    129  O   UNL     1      22.479   7.734  20.217  1.00  0.00    -0.199 OA
ATOM    130  O   UNL     1      22.389  10.118  20.854  1.00  0.00    -0.199 OA
BRANCH 128 131
ATOM    131  O   UNL     1      20.351   9.074  19.689  1.00  0.00    -0.285 OA
ATOM    132  H   UNL     1      19.932   8.344  20.171  1.00  0.00     0.234 HD
ENDBRANCH 128 131
ENDBRANCH 118 128
BRANCH 119 133
ATOM    133  S   UNL     1      23.584  13.033  16.559  1.00  0.00     0.270 S 
ATOM    134  O   UNL     1      22.546  13.687  17.423  1.00  0.00    -0.199 OA
ATOM    135  O   UNL     1      24.978  13.445  16.937  1.00  0.00    -0.199 OA
BRANCH 133 136
ATOM    136  O   UNL     1      23.225  13.467  14.965  1.00  0.00    -0.285 OA
ATOM    137  H   UNL     1      24.034  13.491  14.391  1.00  0.00     0.234 HD
ENDBRANCH 133 136
ENDBRANCH 119 133
ENDBRANCH  62 113
ENDBRANCH  61  62
ENDBRANCH  60  61
ENDBRANCH  59  60
ENDBRANCH  58  59
ENDBRANCH  57  58
ENDBRANCH  56  57
ENDBRANCH  55  56
ENDBRANCH  54  55
ENDBRANCH   1  54
TORSDOF 45
ENDMDL
MODEL 2
REMARK VINA RESULT:   -10.715      1.039      5.825
REMARK INTER + INTRA:         -46.322
REMARK INTER:                 -35.198
REMARK INTRA:                 -11.124
REMARK UNBOUND:               -10.237
REMARK SMILES Cc1cc(OCC(=O)N[C@H](CNC(=O)c2cccc(COc3ccccc3C(N)=O)c2)C(=O)NCCCCCCCCCCCC([C@]23C[C@]4(S(=O)(=O)O)C[C@](S(=O)(=O)O)(C2)C[C@](S(=O)(=O)O)(C3)C4)([C@]23C[C@]4(S(=O)(=O)O)C[C@](S(=O)(=O)O)(C2)C[C@](S(=O)(=O)O)(C3)C4)[C@]23C[C@]4(S(=O)(=O)O)C[C@](S(=O)(=O)O)(C2)C[C@](S(=O)(=O)O)(C3)C4)c2c3c(c(=O)oc2c1)CCC3
REMARK SMILES IDX 37 1 36 2 35 3 34 4 32 5 33 6 10 8 11 9 12 10 14 11 13 12
REMARK SMILES IDX 15 14 16 15 31 16 17 17 19 18 18 19 20 20 21 21 22 22 27 23
REMARK SMILES IDX 23 24 26 25 24 26 25 27 28 28 29 29 30 30 9 33 7 34 8 36
REMARK SMILES IDX 6 37 5 38 4 39 3 40 113 41 2 42 119 43 114 44 1 45 120 46
REMARK SMILES IDX 118 47 115 48 123 49 116 50 121 51 122 52 117 53 38 54 39 55
REMARK SMILES IDX 40 56 41 57 42 58 43 59 44 60 45 61 46 62 69 63 82 64 89 65
REMARK SMILES IDX 70 66 77 67 84 68 71 69 83 70 76 71 90 72 78 73 79 74 80 75
REMARK SMILES IDX 81 76 85 78 86 79 87 80 88 81 72 83 73 84 74 85 75 86 47 88
REMARK SMILES IDX 48 89 60 90 67 91 49 92 55 93 62 94 54 95 68 96 61 97 50 98
REMARK SMILES IDX 51 99 52 100 53 101 56 103 57 104 58 105 59 106 63 108
REMARK SMILES IDX 64 109 65 110 66 111 91 113 104 114 111 115 92 116 99 117
REMARK SMILES IDX 106 118 93 119 105 120 98 121 112 122 100 123 101 124
REMARK SMILES IDX 102 125 103 126 107 128 108 129 109 130 110 131 94 133
REMARK SMILES IDX 95 134 96 135 97 136
REMARK H PARENT 34 7 12 13 29 31 29 32 9 35 81 77 88 82 75 87 53 102 59 107
REMARK H PARENT 66 112 103 127 110 132 97 137
REMARK Flexibility Score: inf
ROOT
ATOM      1  C   UNL     1      23.203   0.713  13.769  1.00  0.00     0.002 C 
ENDROOT
BRANCH   1   2
ATOM      2  C   UNL     1      22.686  -0.664  13.795  1.00  0.00     0.021 C 
BRANCH   2   3
ATOM      3  C   UNL     1      21.373  -1.031  13.250  1.00  0.00     0.116 C 
BRANCH   3   4
ATOM      4  N   UNL     1      20.201  -0.759  14.009  1.00  0.00    -0.354 N 
ATOM      5  C   UNL     1      18.978  -0.263  13.561  1.00  0.00     0.244 C 
ATOM      6  O   UNL     1      18.780   0.048  12.373  1.00  0.00    -0.273 OA
ATOM      7  H   UNL     1      20.244  -0.957  15.071  1.00  0.00     0.163 HD
BRANCH   5   8
ATOM      8  C   UNL     1      17.798  -0.061  14.471  1.00  0.00     0.190 C 
BRANCH   8   9
ATOM      9  C   UNL     1      16.568  -0.736  14.067  1.00  0.00     0.151 C 
BRANCH   9  10
ATOM     10  N   UNL     1      16.582  -2.146  13.862  1.00  0.00    -0.349 N 
ATOM     11  O   UNL     1      14.319  -2.525  13.535  1.00  0.00    -0.269 OA
ATOM     12  C   UNL     1      15.499  -2.991  13.607  1.00  0.00     0.251 C 
ATOM     13  H   UNL     1      17.552  -2.641  13.913  1.00  0.00     0.163 HD
BRANCH  12  14
ATOM     14  C   UNL     1      15.633  -4.411  13.409  1.00  0.00     0.040 A 
ATOM     15  C   UNL     1      15.851  -5.259  14.483  1.00  0.00     0.014 A 
ATOM     16  C   UNL     1      15.511  -4.993  12.177  1.00  0.00     0.021 A 
ATOM     17  C   UNL     1      15.934  -6.613  14.288  1.00  0.00     0.001 A 
ATOM     18  C   UNL     1      15.592  -6.370  11.957  1.00  0.00    -0.010 A 
ATOM     19  C   UNL     1      15.809  -7.188  13.043  1.00  0.00     0.007 A 
BRANCH  18  20
ATOM     20  C   UNL     1      15.461  -6.979  10.624  1.00  0.00     0.265 C 
BRANCH  20  21
ATOM     21  O   UNL     1      15.579  -8.361  10.607  1.00  0.00    -0.488 OA
BRANCH  21  22
ATOM     22  C   UNL     1      16.074  -9.084   9.561  1.00  0.00     0.132 A 
ATOM     23  C   UNL     1      17.390  -9.556   9.703  1.00  0.00     0.081 A 
ATOM     24  C   UNL     1      15.372  -9.358   8.417  1.00  0.00     0.047 A 
ATOM     25  C   UNL     1      17.937 -10.290   8.673  1.00  0.00     0.018 A 
ATOM     26  C   UNL     1      15.974 -10.102   7.415  1.00  0.00     0.004 A 
ATOM     27  C   UNL     1      17.242 -10.567   7.532  1.00  0.00     0.001 A 
BRANCH  23  28
ATOM     28  C   UNL     1      18.126  -9.262  10.911  1.00  0.00     0.252 C 
ATOM     29  N   UNL     1      17.820  -9.984  12.095  1.00  0.00    -0.365 N 
ATOM     30  O   UNL     1      19.016  -8.388  10.907  1.00  0.00    -0.269 OA
ATOM     31  H   UNL     1      17.241  -9.588  12.860  1.00  0.00     0.159 HD
ATOM     32  H   UNL     1      18.209 -10.966  12.174  1.00  0.00     0.159 HD
ENDBRANCH  23  28
ENDBRANCH  21  22
ENDBRANCH  20  21
ENDBRANCH  18  20
ENDBRANCH  12  14
ENDBRANCH   9  10
ENDBRANCH   8   9
BRANCH   8  33
ATOM     33  N   UNL     1      18.182  -0.272  15.827  1.00  0.00    -0.340 N 
ATOM     34  C   UNL     1      18.094   0.754  16.792  1.00  0.00     0.258 C 
ATOM     35  H   UNL     1      18.579  -1.217  16.115  1.00  0.00     0.164 HD
ATOM     36  O   UNL     1      17.663   1.901  16.449  1.00  0.00    -0.271 OA
BRANCH  34  37
ATOM     37  C   UNL     1      18.491   0.525  18.210  1.00  0.00     0.329 C 
BRANCH  37  38
ATOM     38  O   UNL     1      19.859   0.719  18.397  1.00  0.00    -0.483 OA
BRANCH  38  39
ATOM     39  C   UNL     1      20.312   1.733  19.218  1.00  0.00     0.131 A 
ATOM     40  C   UNL     1      19.489   2.473  20.042  1.00  0.00     0.050 A 
ATOM     41  C   UNL     1      21.690   1.974  19.167  1.00  0.00     0.063 A 
ATOM     42  C   UNL     1      20.021   3.472  20.833  1.00  0.00    -0.044 A 
ATOM     43  C   UNL     1      22.206   2.967  19.956  1.00  0.00     0.142 A 
ATOM     44  C   UNL     1      22.492   1.205  18.325  1.00  0.00    -0.023 A 
ATOM     45  C   UNL     1      19.125   4.280  21.730  1.00  0.00     0.044 C 
ATOM     46  C   UNL     1      21.375   3.707  20.779  1.00  0.00     0.051 A 
ATOM     47  O   UNL     1      23.514   3.209  19.920  1.00  0.00    -0.422 OA
ATOM     48  C   UNL     1      23.844   1.500  18.326  1.00  0.00     0.042 A 
ATOM     49  C   UNL     1      22.225   0.100  17.392  1.00  0.00     0.037 C 
ATOM     50  C   UNL     1      24.292   2.508  19.143  1.00  0.00     0.339 A 
ATOM     51  C   UNL     1      24.578   0.600  17.386  1.00  0.00     0.044 C 
ATOM     52  C   UNL     1      23.609  -0.549  17.243  1.00  0.00     0.010 C 
ATOM     53  O   UNL     1      25.528   2.765  19.134  1.00  0.00    -0.246 OA
ENDBRANCH  38  39
ENDBRANCH  37  38
ENDBRANCH  34  37
ENDBRANCH   8  33
ENDBRANCH   5   8
ENDBRANCH   3   4
ENDBRANCH   2   3
ENDBRANCH   1   2
BRANCH   1  54
ATOM     54  C   UNL     1      22.194   1.798  14.154  1.00  0.00     0.000 C 
BRANCH  54  55
ATOM     55  C   UNL     1      22.906   3.030  14.597  1.00  0.00     0.000 C 
BRANCH  55  56
ATOM     56  C   UNL     1      24.397   2.876  14.582  1.00  0.00     0.000 C 
BRANCH  56  57
ATOM     57  C   UNL     1      24.988   3.831  15.597  1.00  0.00     0.000 C 
BRANCH  57  58
ATOM     58  C   UNL     1      26.465   3.516  15.733  1.00  0.00     0.000 C 
BRANCH  58  59
ATOM     59  C   UNL     1      27.169   4.590  16.568  1.00  0.00     0.000 C 
BRANCH  59  60
ATOM     60  C   UNL     1      26.234   5.526  17.187  1.00  0.00     0.001 C 
BRANCH  60  61
ATOM     61  C   UNL     1      25.905   6.847  17.170  1.00  0.00     0.009 C 
BRANCH  61  62
ATOM     62  C   UNL     1      26.187   8.291  16.932  1.00  0.00    -0.012 C 
BRANCH  62  63
ATOM     63  C   UNL     1      24.801   8.945  16.856  1.00  0.00    -0.018 C 
ATOM     64  C   UNL     1      23.998   8.746  18.131  1.00  0.00     0.033 C 
ATOM     65  C   UNL     1      24.866  10.439  16.747  1.00  0.00     0.033 C 
ATOM     66  C   UNL     1      23.831   8.467  15.896  1.00  0.00     0.033 C 
ATOM     67  C   UNL     1      22.729   9.549  18.202  1.00  0.00     0.101 C 
ATOM     68  C   UNL     1      23.516  11.142  16.669  1.00  0.00     0.101 C 
ATOM     69  C   UNL     1      22.497   9.256  15.901  1.00  0.00     0.101 C 
ATOM     70  C   UNL     1      22.871  11.003  18.028  1.00  0.00     0.051 C 
ATOM     71  C   UNL     1      21.732   9.048  17.180  1.00  0.00     0.051 C 
ATOM     72  C   UNL     1      22.657  10.683  15.554  1.00  0.00     0.051 C 
BRANCH  67  73
ATOM     73  S   UNL     1      21.944   9.250  19.786  1.00  0.00     0.270 S 
ATOM     74  O   UNL     1      20.493   8.999  19.625  1.00  0.00    -0.199 OA
ATOM     75  O   UNL     1      22.562   7.962  20.304  1.00  0.00    -0.199 OA
BRANCH  73  76
ATOM     76  O   UNL     1      22.316  10.435  20.895  1.00  0.00    -0.285 OA
ATOM     77  H   UNL     1      23.316  10.413  21.004  1.00  0.00     0.234 HD
ENDBRANCH  73  76
ENDBRANCH  67  73
BRANCH  68  78
ATOM     78  S   UNL     1      23.822  12.889  16.447  1.00  0.00     0.270 S 
ATOM     79  O   UNL     1      22.547  13.646  16.438  1.00  0.00    -0.199 OA
ATOM     80  O   UNL     1      24.521  13.020  15.107  1.00  0.00    -0.199 OA
BRANCH  78  81
ATOM     81  O   UNL     1      24.886  13.458  17.630  1.00  0.00    -0.285 OA
ATOM     82  H   UNL     1      24.379  13.983  18.307  1.00  0.00     0.234 HD
ENDBRANCH  78  81
ENDBRANCH  68  78
BRANCH  69  83
ATOM     83  S   UNL     1      21.442   8.541  14.643  1.00  0.00     0.270 S 
ATOM     84  O   UNL     1      21.979   7.260  14.142  1.00  0.00    -0.199 OA
ATOM     85  O   UNL     1      21.418   9.493  13.454  1.00  0.00    -0.199 OA
BRANCH  83  86
ATOM     86  O   UNL     1      19.892   8.329  15.191  1.00  0.00    -0.285 OA
ATOM     87  H   UNL     1      19.473   9.207  15.337  1.00  0.00     0.234 HD
ENDBRANCH  83  86
ENDBRANCH  69  83
ENDBRANCH  62  63
BRANCH  62  88
ATOM     88  C   UNL     1      27.061   8.828  18.048  1.00  0.00    -0.018 C 
ATOM     89  C   UNL     1      27.405  10.291  17.939  1.00  0.00     0.033 C 
ATOM     90  C   UNL     1      28.241   8.103  18.490  1.00  0.00     0.033 C 
ATOM     91  C   UNL     1      26.228   9.042  19.320  1.00  0.00     0.033 C 
ATOM     92  C   UNL     1      28.108  10.850  19.187  1.00  0.00     0.101 C 
ATOM     93  C   UNL     1      29.071   8.789  19.592  1.00  0.00     0.101 C 
ATOM     94  C   UNL     1      26.993   9.354  20.536  1.00  0.00     0.101 C 
ATOM     95  C   UNL     1      29.459  10.174  19.302  1.00  0.00     0.051 C 
ATOM     96  C   UNL     1      27.370  10.847  20.441  1.00  0.00     0.051 C 
ATOM     97  C   UNL     1      28.231   8.663  20.869  1.00  0.00     0.051 C 
BRANCH  92  98
ATOM     98  S   UNL     1      28.447  12.575  18.816  1.00  0.00     0.270 S 
ATOM     99  O   UNL     1      27.731  12.989  17.555  1.00  0.00    -0.199 OA
ATOM    100  O   UNL     1      29.896  12.833  18.630  1.00  0.00    -0.199 OA
BRANCH  98 101
ATOM    101  O   UNL     1      27.898  13.550  20.072  1.00  0.00    -0.285 OA
ATOM    102  H   UNL     1      28.099  13.157  20.960  1.00  0.00     0.234 HD
ENDBRANCH  98 101
ENDBRANCH  92  98
BRANCH  93 103
ATOM    103  S   UNL     1      30.537   7.819  19.876  1.00  0.00     0.270 S 
ATOM    104  O   UNL     1      30.917   7.219  18.552  1.00  0.00    -0.199 OA
ATOM    105  O   UNL     1      31.684   8.679  20.317  1.00  0.00    -0.199 OA
BRANCH 103 106
ATOM    106  O   UNL     1      30.203   6.582  20.930  1.00  0.00    -0.285 OA
ATOM    107  H   UNL     1      30.117   5.711  20.490  1.00  0.00     0.234 HD
ENDBRANCH 103 106
ENDBRANCH  93 103
BRANCH  94 108
ATOM    108  S   UNL     1      25.904   9.266  21.959  1.00  0.00     0.270 S 
ATOM    109  O   UNL     1      26.806   9.302  23.181  1.00  0.00    -0.199 OA
ATOM    110  O   UNL     1      25.005  10.453  22.042  1.00  0.00    -0.199 OA
BRANCH 108 111
ATOM    111  O   UNL     1      25.099   7.812  21.992  1.00  0.00    -0.285 OA
ATOM    112  H   UNL     1      24.405   7.843  22.693  1.00  0.00     0.234 HD
ENDBRANCH 108 111
ENDBRANCH  94 108
ENDBRANCH  62  88
BRANCH  62 113
ATOM    113  C   UNL     1      26.868   8.401  15.552  1.00  0.00    -0.018 C 
ATOM    114  C   UNL     1      28.298   8.012  15.495  1.00  0.00     0.033 C 
ATOM    115  C   UNL     1      26.437   7.204  14.670  1.00  0.00     0.033 C 
ATOM    116  C   UNL     1      26.767   9.647  14.810  1.00  0.00     0.033 C 
ATOM    117  C   UNL     1      28.903   8.013  14.073  1.00  0.00     0.101 C 
ATOM    118  C   UNL     1      26.820   7.349  13.247  1.00  0.00     0.101 C 
ATOM    119  C   UNL     1      27.455   9.645  13.422  1.00  0.00     0.101 C 
ATOM    120  C   UNL     1      28.329   7.021  13.169  1.00  0.00     0.051 C 
ATOM    121  C   UNL     1      28.904   9.397  13.526  1.00  0.00     0.051 C 
ATOM    122  C   UNL     1      26.669   8.658  12.599  1.00  0.00     0.051 C 
BRANCH 117 123
ATOM    123  S   UNL     1      30.638   7.570  14.297  1.00  0.00     0.270 S 
ATOM    124  O   UNL     1      31.495   8.779  14.219  1.00  0.00    -0.199 OA
ATOM    125  O   UNL     1      31.031   6.638  13.164  1.00  0.00    -0.199 OA
BRANCH 123 126
ATOM    126  O   UNL     1      30.867   6.733  15.722  1.00  0.00    -0.285 OA
ATOM    127  H   UNL     1      31.652   6.147  15.726  1.00  0.00     0.234 HD
ENDBRANCH 123 126
ENDBRANCH 117 123
BRANCH 118 128
ATOM    128  S   UNL     1      26.038   6.096  12.259  1.00  0.00     0.270 S 
ATOM    129  O   UNL     1      24.632   5.879  12.721  1.00  0.00    -0.199 OA
ATOM    130  O   UNL     1      26.044   6.490  10.789  1.00  0.00    -0.199 OA
BRANCH 128 131
ATOM    131  O   UNL     1      26.864   4.651  12.384  1.00  0.00    -0.285 OA
ATOM    132  H   UNL     1      26.872   4.275  13.279  1.00  0.00     0.234 HD
ENDBRANCH 128 131
ENDBRANCH 118 128
BRANCH 119 133
ATOM    133  S   UNL     1      27.250  11.270  12.720  1.00  0.00     0.270 S 
ATOM    134  O   UNL     1      28.535  11.600  12.017  1.00  0.00    -0.199 OA
ATOM    135  O   UNL     1      26.068  11.326  11.796  1.00  0.00    -0.199 OA
BRANCH 133 136
ATOM    136  O   UNL     1      27.097  12.381  13.986  1.00  0.00    -0.285 OA
ATOM    137  H   UNL     1      26.640  11.990  14.775  1.00  0.00     0.234 HD
ENDBRANCH 133 136
ENDBRANCH 119 133
ENDBRANCH  62 113
ENDBRANCH  61  62
ENDBRANCH  60  61
ENDBRANCH  59  60
ENDBRANCH  58  59
ENDBRANCH  57  58
ENDBRANCH  56  57
ENDBRANCH  55  56
ENDBRANCH  54  55
ENDBRANCH   1  54
TORSDOF 45
ENDMDL
MODEL 3
REMARK VINA RESULT:   -10.699      0.476      2.841
REMARK INTER + INTRA:         -46.266
REMARK INTER:                 -36.076
REMARK INTRA:                 -10.190
REMARK UNBOUND:               -10.237
REMARK SMILES Cc1cc(OCC(=O)N[C@H](CNC(=O)c2cccc(COc3ccccc3C(N)=O)c2)C(=O)NCCCCCCCCCCCC([C@]23C[C@]4(S(=O)(=O)O)C[C@](S(=O)(=O)O)(C2)C[C@](S(=O)(=O)O)(C3)C4)([C@]23C[C@]4(S(=O)(=O)O)C[C@](S(=O)(=O)O)(C2)C[C@](S(=O)(=O)O)(C3)C4)[C@]23C[C@]4(S(=O)(=O)O)C[C@](S(=O)(=O)O)(C2)C[C@](S(=O)(=O)O)(C3)C4)c2c3c(c(=O)oc2c1)CCC3
REMARK SMILES IDX 37 1 36 2 35 3 34 4 32 5 33 6 10 8 11 9 12 10 14 11 13 12
REMARK SMILES IDX 15 14 16 15 31 16 17 17 19 18 18 19 20 20 21 21 22 22 27 23
REMARK SMILES IDX 23 24 26 25 24 26 25 27 28 28 29 29 30 30 9 33 7 34 8 36
REMARK SMILES IDX 6 37 5 38 4 39 3 40 113 41 2 42 119 43 114 44 1 45 120 46
REMARK SMILES IDX 118 47 115 48 123 49 116 50 121 51 122 52 117 53 38 54 39 55
REMARK SMILES IDX 40 56 41 57 42 58 43 59 44 60 45 61 46 62 69 63 82 64 89 65
REMARK SMILES IDX 70 66 77 67 84 68 71 69 83 70 76 71 90 72 78 73 79 74 80 75
REMARK SMILES IDX 81 76 85 78 86 79 87 80 88 81 72 83 73 84 74 85 75 86 47 88
REMARK SMILES IDX 48 89 60 90 67 91 49 92 55 93 62 94 54 95 68 96 61 97 50 98
REMARK SMILES IDX 51 99 52 100 53 101 56 103 57 104 58 105 59 106 63 108
REMARK SMILES IDX 64 109 65 110 66 111 91 113 104 114 111 115 92 116 99 117
REMARK SMILES IDX 106 118 93 119 105 120 98 121 112 122 100 123 101 124
REMARK SMILES IDX 102 125 103 126 107 128 108 129 109 130 110 131 94 133
REMARK SMILES IDX 95 134 96 135 97 136
REMARK H PARENT 34 7 12 13 29 31 29 32 9 35 81 77 88 82 75 87 53 102 59 107
REMARK H PARENT 66 112 103 127 110 132 97 137
REMARK Flexibility Score: inf
ROOT
ATOM      1  C   UNL     1      22.584   0.135  13.171  1.00  0.00     0.002 C 
ENDROOT
BRANCH   1   2
ATOM      2  C   UNL     1      22.711  -1.304  13.448  1.00  0.00     0.021 C 
BRANCH   2   3
ATOM      3  C   UNL     1      21.598  -2.119  13.950  1.00  0.00     0.116 C 
BRANCH   3   4
ATOM      4  N   UNL     1      20.319  -1.521  14.128  1.00  0.00    -0.354 N 
ATOM      5  C   UNL     1      19.236  -2.002  14.859  1.00  0.00     0.244 C 
ATOM      6  O   UNL     1      19.262  -3.099  15.447  1.00  0.00    -0.273 OA
ATOM      7  H   UNL     1      20.147  -0.571  13.642  1.00  0.00     0.163 HD
BRANCH   5   8
ATOM      8  C   UNL     1      17.945  -1.242  15.000  1.00  0.00     0.190 C 
BRANCH   8   9
ATOM      9  C   UNL     1      16.736  -1.986  14.658  1.00  0.00     0.151 C 
BRANCH   9  10
ATOM     10  N   UNL     1      16.855  -3.297  14.113  1.00  0.00    -0.349 N 
ATOM     11  O   UNL     1      15.036  -3.299  12.676  1.00  0.00    -0.269 OA
ATOM     12  C   UNL     1      16.036  -3.914  13.164  1.00  0.00     0.251 C 
ATOM     13  H   UNL     1      17.681  -3.907  14.476  1.00  0.00     0.163 HD
BRANCH  12  14
ATOM     14  C   UNL     1      16.257  -5.251  12.677  1.00  0.00     0.040 A 
ATOM     15  C   UNL     1      17.122  -6.111  13.335  1.00  0.00     0.014 A 
ATOM     16  C   UNL     1      15.604  -5.749  11.583  1.00  0.00     0.021 A 
ATOM     17  C   UNL     1      17.292  -7.395  12.887  1.00  0.00     0.001 A 
ATOM     18  C   UNL     1      15.764  -7.053  11.111  1.00  0.00    -0.010 A 
ATOM     19  C   UNL     1      16.628  -7.886  11.785  1.00  0.00     0.007 A 
BRANCH  18  20
ATOM     20  C   UNL     1      15.055  -7.571   9.929  1.00  0.00     0.265 C 
BRANCH  20  21
ATOM     21  O   UNL     1      15.064  -8.954   9.812  1.00  0.00    -0.488 OA
BRANCH  21  22
ATOM     22  C   UNL     1      14.757  -9.636   8.671  1.00  0.00     0.132 A 
ATOM     23  C   UNL     1      15.772  -9.711   7.703  1.00  0.00     0.081 A 
ATOM     24  C   UNL     1      13.544 -10.229   8.434  1.00  0.00     0.047 A 
ATOM     25  C   UNL     1      15.512 -10.389   6.532  1.00  0.00     0.018 A 
ATOM     26  C   UNL     1      13.340 -10.897   7.237  1.00  0.00     0.004 A 
ATOM     27  C   UNL     1      14.306 -10.982   6.290  1.00  0.00     0.001 A 
BRANCH  23  28
ATOM     28  C   UNL     1      17.048  -9.083   7.958  1.00  0.00     0.252 C 
ATOM     29  N   UNL     1      17.942  -9.692   8.878  1.00  0.00    -0.365 N 
ATOM     30  O   UNL     1      17.354  -8.024   7.375  1.00  0.00    -0.269 OA
ATOM     31  H   UNL     1      18.062  -9.353   9.852  1.00  0.00     0.159 HD
ATOM     32  H   UNL     1      18.496 -10.526   8.532  1.00  0.00     0.159 HD
ENDBRANCH  23  28
ENDBRANCH  21  22
ENDBRANCH  20  21
ENDBRANCH  18  20
ENDBRANCH  12  14
ENDBRANCH   9  10
ENDBRANCH   8   9
BRANCH   8  33
ATOM     33  N   UNL     1      17.905  -0.573  16.257  1.00  0.00    -0.340 N 
ATOM     34  C   UNL     1      18.165   0.809  16.372  1.00  0.00     0.258 C 
ATOM     35  H   UNL     1      17.706  -1.134  17.140  1.00  0.00     0.164 HD
ATOM     36  O   UNL     1      18.446   1.482  15.328  1.00  0.00    -0.271 OA
BRANCH  34  37
ATOM     37  C   UNL     1      18.114   1.504  17.689  1.00  0.00     0.329 C 
BRANCH  37  38
ATOM     38  O   UNL     1      19.113   1.049  18.548  1.00  0.00    -0.483 OA
BRANCH  38  39
ATOM     39  C   UNL     1      19.760   1.930  19.392  1.00  0.00     0.131 A 
ATOM     40  C   UNL     1      19.102   2.755  20.283  1.00  0.00     0.050 A 
ATOM     41  C   UNL     1      21.156   1.938  19.294  1.00  0.00     0.063 A 
ATOM     42  C   UNL     1      19.824   3.609  21.093  1.00  0.00    -0.044 A 
ATOM     43  C   UNL     1      21.860   2.789  20.104  1.00  0.00     0.142 A 
ATOM     44  C   UNL     1      21.787   1.089  18.386  1.00  0.00    -0.023 A 
ATOM     45  C   UNL     1      19.108   4.510  22.062  1.00  0.00     0.044 C 
ATOM     46  C   UNL     1      21.195   3.616  20.993  1.00  0.00     0.051 A 
ATOM     47  O   UNL     1      23.187   2.809  20.023  1.00  0.00    -0.422 OA
ATOM     48  C   UNL     1      23.168   1.152  18.343  1.00  0.00     0.042 A 
ATOM     49  C   UNL     1      21.304   0.093  17.417  1.00  0.00     0.037 C 
ATOM     50  C   UNL     1      23.809   2.028  19.183  1.00  0.00     0.339 A 
ATOM     51  C   UNL     1      23.707   0.191  17.334  1.00  0.00     0.044 C 
ATOM     52  C   UNL     1      22.551  -0.771  17.182  1.00  0.00     0.010 C 
ATOM     53  O   UNL     1      25.069   2.074  19.134  1.00  0.00    -0.246 OA
ENDBRANCH  38  39
ENDBRANCH  37  38
ENDBRANCH  34  37
ENDBRANCH   8  33
ENDBRANCH   5   8
ENDBRANCH   3   4
ENDBRANCH   2   3
ENDBRANCH   1   2
BRANCH   1  54
ATOM     54  C   UNL     1      23.539   1.038  13.954  1.00  0.00     0.000 C 
BRANCH  54  55
ATOM     55  C   UNL     1      22.811   2.232  14.470  1.00  0.00     0.000 C 
BRANCH  55  56
ATOM     56  C   UNL     1      23.701   3.176  15.220  1.00  0.00     0.000 C 
BRANCH  56  57
ATOM     57  C   UNL     1      25.140   2.766  14.988  1.00  0.00     0.000 C 
BRANCH  57  58
ATOM     58  C   UNL     1      25.993   3.417  16.058  1.00  0.00     0.000 C 
BRANCH  58  59
ATOM     59  C   UNL     1      25.148   4.356  16.923  1.00  0.00     0.000 C 
BRANCH  59  60
ATOM     60  C   UNL     1      25.863   5.575  17.295  1.00  0.00     0.001 C 
BRANCH  60  61
ATOM     61  C   UNL     1      25.717   6.928  17.268  1.00  0.00     0.009 C 
BRANCH  61  62
ATOM     62  C   UNL     1      26.044   8.298  16.781  1.00  0.00    -0.012 C 
BRANCH  62  63
ATOM     63  C   UNL     1      26.932   8.894  17.881  1.00  0.00    -0.018 C 
ATOM     64  C   UNL     1      27.285  10.348  17.615  1.00  0.00     0.033 C 
ATOM     65  C   UNL     1      26.243   8.968  19.211  1.00  0.00     0.033 C 
ATOM     66  C   UNL     1      28.263   8.370  18.095  1.00  0.00     0.033 C 
ATOM     67  C   UNL     1      27.961  11.047  18.761  1.00  0.00     0.101 C 
ATOM     68  C   UNL     1      27.080   9.553  20.342  1.00  0.00     0.101 C 
ATOM     69  C   UNL     1      29.021   9.035  19.271  1.00  0.00     0.101 C 
ATOM     70  C   UNL     1      27.246  11.025  20.047  1.00  0.00     0.051 C 
ATOM     71  C   UNL     1      29.344  10.476  18.982  1.00  0.00     0.051 C 
ATOM     72  C   UNL     1      28.358   8.847  20.578  1.00  0.00     0.051 C 
BRANCH  67  73
ATOM     73  S   UNL     1      28.244  12.759  18.308  1.00  0.00     0.270 S 
ATOM     74  O   UNL     1      28.377  13.615  19.509  1.00  0.00    -0.199 OA
ATOM     75  O   UNL     1      29.589  12.771  17.602  1.00  0.00    -0.199 OA
BRANCH  73  76
ATOM     76  O   UNL     1      27.123  13.299  17.202  1.00  0.00    -0.285 OA
ATOM     77  H   UNL     1      26.247  13.352  17.693  1.00  0.00     0.234 HD
ENDBRANCH  73  76
ENDBRANCH  67  73
BRANCH  68  78
ATOM     78  S   UNL     1      26.112   9.459  21.841  1.00  0.00     0.270 S 
ATOM     79  O   UNL     1      25.234  10.648  21.972  1.00  0.00    -0.199 OA
ATOM     80  O   UNL     1      27.113   9.417  22.980  1.00  0.00    -0.199 OA
BRANCH  78  81
ATOM     81  O   UNL     1      25.232   8.017  21.889  1.00  0.00    -0.285 OA
ATOM     82  H   UNL     1      25.338   7.592  22.782  1.00  0.00     0.234 HD
ENDBRANCH  78  81
ENDBRANCH  68  78
BRANCH  69  83
ATOM     83  S   UNL     1      30.624   8.247  19.394  1.00  0.00     0.270 S 
ATOM     84  O   UNL     1      31.221   8.428  20.733  1.00  0.00    -0.199 OA
ATOM     85  O   UNL     1      31.562   8.930  18.408  1.00  0.00    -0.199 OA
BRANCH  83  86
ATOM     86  O   UNL     1      30.543   6.633  19.025  1.00  0.00    -0.285 OA
ATOM     87  H   UNL     1      29.601   6.360  18.949  1.00  0.00     0.234 HD
ENDBRANCH  83  86
ENDBRANCH  69  83
ENDBRANCH  62  63
BRANCH  62  88
ATOM     88  C   UNL     1      26.719   8.207  15.426  1.00  0.00    -0.018 C 
ATOM     89  C   UNL     1      26.241   7.077  14.551  1.00  0.00     0.033 C 
ATOM     90  C   UNL     1      28.163   8.316  15.300  1.00  0.00     0.033 C 
ATOM     91  C   UNL     1      26.157   9.277  14.479  1.00  0.00     0.033 C 
ATOM     92  C   UNL     1      26.786   7.141  13.115  1.00  0.00     0.101 C 
ATOM     93  C   UNL     1      28.723   8.149  13.874  1.00  0.00     0.101 C 
ATOM     94  C   UNL     1      26.874   9.440  13.206  1.00  0.00     0.101 C 
ATOM     95  C   UNL     1      28.285   6.933  13.178  1.00  0.00     0.051 C 
ATOM     96  C   UNL     1      26.411   8.283  12.296  1.00  0.00     0.051 C 
ATOM     97  C   UNL     1      28.328   9.432  13.131  1.00  0.00     0.051 C 
BRANCH  92  98
ATOM     98  S   UNL     1      26.120   5.694  12.284  1.00  0.00     0.270 S 
ATOM     99  O   UNL     1      26.060   5.927  10.796  1.00  0.00    -0.199 OA
ATOM    100  O   UNL     1      24.753   5.359  12.754  1.00  0.00    -0.199 OA
BRANCH  98 101
ATOM    101  O   UNL     1      27.111   4.365  12.565  1.00  0.00    -0.285 OA
ATOM    102  H   UNL     1      27.571   4.425  13.441  1.00  0.00     0.234 HD
ENDBRANCH  98 101
ENDBRANCH  92  98
BRANCH  93 103
ATOM    103  S   UNL     1      30.501   8.164  13.963  1.00  0.00     0.270 S 
ATOM    104  O   UNL     1      30.950   6.739  13.807  1.00  0.00    -0.199 OA
ATOM    105  O   UNL     1      31.098   8.944  12.829  1.00  0.00    -0.199 OA
BRANCH 103 106
ATOM    106  O   UNL     1      30.987   8.700  15.456  1.00  0.00    -0.285 OA
ATOM    107  H   UNL     1      31.603   8.087  15.907  1.00  0.00     0.234 HD
ENDBRANCH 103 106
ENDBRANCH  93 103
BRANCH  94 108
ATOM    108  S   UNL     1      26.281  10.915  12.376  1.00  0.00     0.270 S 
ATOM    109  O   UNL     1      26.986  12.084  13.042  1.00  0.00    -0.199 OA
ATOM    110  O   UNL     1      26.667  10.933  10.936  1.00  0.00    -0.199 OA
BRANCH 108 111
ATOM    111  O   UNL     1      24.651  11.119  12.635  1.00  0.00    -0.285 OA
ATOM    112  H   UNL     1      24.165  10.931  11.798  1.00  0.00     0.234 HD
ENDBRANCH 108 111
ENDBRANCH  94 108
ENDBRANCH  62  88
BRANCH  62 113
ATOM    113  C   UNL     1      24.721   9.089  16.721  1.00  0.00    -0.018 C 
ATOM    114  C   UNL     1      23.692   8.575  15.785  1.00  0.00     0.033 C 
ATOM    115  C   UNL     1      23.862   8.746  17.962  1.00  0.00     0.033 C 
ATOM    116  C   UNL     1      24.765  10.526  16.511  1.00  0.00     0.033 C 
ATOM    117  C   UNL     1      22.340   9.319  15.853  1.00  0.00     0.101 C 
ATOM    118  C   UNL     1      22.696   9.641  18.141  1.00  0.00     0.101 C 
ATOM    119  C   UNL     1      23.387  11.234  16.501  1.00  0.00     0.101 C 
ATOM    120  C   UNL     1      21.631   9.173  17.122  1.00  0.00     0.051 C 
ATOM    121  C   UNL     1      22.518  10.731  15.422  1.00  0.00     0.051 C 
ATOM    122  C   UNL     1      22.861  11.080  17.904  1.00  0.00     0.051 C 
BRANCH 117 123
ATOM    123  S   UNL     1      21.309   8.543  14.591  1.00  0.00     0.270 S 
ATOM    124  O   UNL     1      21.930   7.279  14.121  1.00  0.00    -0.199 OA
ATOM    125  O   UNL     1      21.221   9.494  13.411  1.00  0.00    -0.199 OA
BRANCH 123 126
ATOM    126  O   UNL     1      19.753   8.304  15.146  1.00  0.00    -0.285 OA
ATOM    127  H   UNL     1      19.661   7.575  15.792  1.00  0.00     0.234 HD
ENDBRANCH 123 126
ENDBRANCH 117 123
BRANCH 118 128
ATOM    128  S   UNL     1      21.942   9.375  19.728  1.00  0.00     0.270 S 
ATOM    129  O   UNL     1      22.109  10.589  20.586  1.00  0.00    -0.199 OA
ATOM    130  O   UNL     1      20.463   9.052  19.573  1.00  0.00    -0.199 OA
BRANCH 128 131
ATOM    131  O   UNL     1      22.651   8.078  20.504  1.00  0.00    -0.285 OA
ATOM    132  H   UNL     1      22.698   7.272  19.965  1.00  0.00     0.234 HD
ENDBRANCH 128 131
ENDBRANCH 118 128
BRANCH 119 133
ATOM    133  S   UNL     1      23.674  12.963  16.180  1.00  0.00     0.270 S 
ATOM    134  O   UNL     1      22.415  13.501  15.564  1.00  0.00    -0.199 OA
ATOM    135  O   UNL     1      24.051  13.700  17.433  1.00  0.00    -0.199 OA
BRANCH 133 136
ATOM    136  O   UNL     1      24.879  13.094  15.002  1.00  0.00    -0.285 OA
ATOM    137  H   UNL     1      25.649  13.635  15.313  1.00  0.00     0.234 HD
ENDBRANCH 133 136
ENDBRANCH 119 133
ENDBRANCH  62 113
ENDBRANCH  61  62
ENDBRANCH  60  61
ENDBRANCH  59  60
ENDBRANCH  58  59
ENDBRANCH  57  58
ENDBRANCH  56  57
ENDBRANCH  55  56
ENDBRANCH  54  55
ENDBRANCH   1  54
TORSDOF 45
ENDMDL
MODEL 4
REMARK VINA RESULT:   -10.693      1.302      3.761
REMARK INTER + INTRA:         -46.246
REMARK INTER:                 -36.495
REMARK INTRA:                  -9.750
REMARK UNBOUND:               -10.237
REMARK SMILES Cc1cc(OCC(=O)N[C@H](CNC(=O)c2cccc(COc3ccccc3C(N)=O)c2)C(=O)NCCCCCCCCCCCC([C@]23C[C@]4(S(=O)(=O)O)C[C@](S(=O)(=O)O)(C2)C[C@](S(=O)(=O)O)(C3)C4)([C@]23C[C@]4(S(=O)(=O)O)C[C@](S(=O)(=O)O)(C2)C[C@](S(=O)(=O)O)(C3)C4)[C@]23C[C@]4(S(=O)(=O)O)C[C@](S(=O)(=O)O)(C2)C[C@](S(=O)(=O)O)(C3)C4)c2c3c(c(=O)oc2c1)CCC3
REMARK SMILES IDX 37 1 36 2 35 3 34 4 32 5 33 6 10 8 11 9 12 10 14 11 13 12
REMARK SMILES IDX 15 14 16 15 31 16 17 17 19 18 18 19 20 20 21 21 22 22 27 23
REMARK SMILES IDX 23 24 26 25 24 26 25 27 28 28 29 29 30 30 9 33 7 34 8 36
REMARK SMILES IDX 6 37 5 38 4 39 3 40 113 41 2 42 119 43 114 44 1 45 120 46
REMARK SMILES IDX 118 47 115 48 123 49 116 50 121 51 122 52 117 53 38 54 39 55
REMARK SMILES IDX 40 56 41 57 42 58 43 59 44 60 45 61 46 62 69 63 82 64 89 65
REMARK SMILES IDX 70 66 77 67 84 68 71 69 83 70 76 71 90 72 78 73 79 74 80 75
REMARK SMILES IDX 81 76 85 78 86 79 87 80 88 81 72 83 73 84 74 85 75 86 47 88
REMARK SMILES IDX 48 89 60 90 67 91 49 92 55 93 62 94 54 95 68 96 61 97 50 98
REMARK SMILES IDX 51 99 52 100 53 101 56 103 57 104 58 105 59 106 63 108
REMARK SMILES IDX 64 109 65 110 66 111 91 113 104 114 111 115 92 116 99 117
REMARK SMILES IDX 106 118 93 119 105 120 98 121 112 122 100 123 101 124
REMARK SMILES IDX 102 125 103 126 107 128 108 129 109 130 110 131 94 133
REMARK SMILES IDX 95 134 96 135 97 136
REMARK H PARENT 34 7 12 13 29 31 29 32 9 35 81 77 88 82 75 87 53 102 59 107
REMARK H PARENT 66 112 103 127 110 132 97 137
REMARK Flexibility Score: inf
ROOT
ATOM      1  C   UNL     1      22.662  -0.039  12.802  1.00  0.00     0.002 C 
ENDROOT
BRANCH   1   2
ATOM      2  C   UNL     1      22.469  -1.480  13.027  1.00  0.00     0.021 C 
BRANCH   2   3
ATOM      3  C   UNL     1      21.600  -2.011  14.084  1.00  0.00     0.116 C 
BRANCH   3   4
ATOM      4  N   UNL     1      20.292  -1.476  14.248  1.00  0.00    -0.354 N 
ATOM      5  C   UNL     1      19.212  -2.033  14.929  1.00  0.00     0.244 C 
ATOM      6  O   UNL     1      19.271  -3.150  15.474  1.00  0.00    -0.273 OA
ATOM      7  H   UNL     1      20.091  -0.515  13.795  1.00  0.00     0.163 HD
BRANCH   5   8
ATOM      8  C   UNL     1      17.885  -1.335  15.063  1.00  0.00     0.190 C 
BRANCH   8   9
ATOM      9  C   UNL     1      16.714  -2.140  14.726  1.00  0.00     0.151 C 
BRANCH   9  10
ATOM     10  N   UNL     1      16.895  -3.403  14.094  1.00  0.00    -0.349 N 
ATOM     11  O   UNL     1      14.800  -3.676  13.140  1.00  0.00    -0.269 OA
ATOM     12  C   UNL     1      15.972  -4.128  13.336  1.00  0.00     0.251 C 
ATOM     13  H   UNL     1      17.870  -3.877  14.211  1.00  0.00     0.163 HD
BRANCH  12  14
ATOM     14  C   UNL     1      16.269  -5.402  12.733  1.00  0.00     0.040 A 
ATOM     15  C   UNL     1      17.259  -6.220  13.256  1.00  0.00     0.014 A 
ATOM     16  C   UNL     1      15.573  -5.884  11.659  1.00  0.00     0.021 A 
ATOM     17  C   UNL     1      17.504  -7.448  12.700  1.00  0.00     0.001 A 
ATOM     18  C   UNL     1      15.807  -7.132  11.079  1.00  0.00    -0.010 A 
ATOM     19  C   UNL     1      16.796  -7.923  11.619  1.00  0.00     0.007 A 
BRANCH  18  20
ATOM     20  C   UNL     1      15.050  -7.633   9.920  1.00  0.00     0.265 C 
BRANCH  20  21
ATOM     21  O   UNL     1      15.067  -9.012   9.773  1.00  0.00    -0.488 OA
BRANCH  21  22
ATOM     22  C   UNL     1      14.743  -9.673   8.625  1.00  0.00     0.132 A 
ATOM     23  C   UNL     1      15.755  -9.759   7.654  1.00  0.00     0.081 A 
ATOM     24  C   UNL     1      13.517 -10.235   8.382  1.00  0.00     0.047 A 
ATOM     25  C   UNL     1      15.478 -10.415   6.475  1.00  0.00     0.018 A 
ATOM     26  C   UNL     1      13.296 -10.883   7.176  1.00  0.00     0.004 A 
ATOM     27  C   UNL     1      14.259 -10.977   6.227  1.00  0.00     0.001 A 
BRANCH  23  28
ATOM     28  C   UNL     1      17.045  -9.163   7.915  1.00  0.00     0.252 C 
ATOM     29  N   UNL     1      17.940  -9.821   8.800  1.00  0.00    -0.365 N 
ATOM     30  O   UNL     1      17.363  -8.088   7.367  1.00  0.00    -0.269 OA
ATOM     31  H   UNL     1      18.078  -9.521   9.784  1.00  0.00     0.159 HD
ATOM     32  H   UNL     1      18.474 -10.652   8.416  1.00  0.00     0.159 HD
ENDBRANCH  23  28
ENDBRANCH  21  22
ENDBRANCH  20  21
ENDBRANCH  18  20
ENDBRANCH  12  14
ENDBRANCH   9  10
ENDBRANCH   8   9
BRANCH   8  33
ATOM     33  N   UNL     1      17.812  -0.658  16.314  1.00  0.00    -0.340 N 
ATOM     34  C   UNL     1      18.304   0.654  16.478  1.00  0.00     0.258 C 
ATOM     35  H   UNL     1      17.404  -1.164  17.157  1.00  0.00     0.164 HD
ATOM     36  O   UNL     1      18.833   1.254  15.488  1.00  0.00    -0.271 OA
BRANCH  34  37
ATOM     37  C   UNL     1      18.218   1.360  17.788  1.00  0.00     0.329 C 
BRANCH  37  38
ATOM     38  O   UNL     1      19.251   0.981  18.644  1.00  0.00    -0.483 OA
BRANCH  38  39
ATOM     39  C   UNL     1      19.870   1.920  19.446  1.00  0.00     0.131 A 
ATOM     40  C   UNL     1      19.191   2.744  20.321  1.00  0.00     0.050 A 
ATOM     41  C   UNL     1      21.262   1.990  19.319  1.00  0.00     0.063 A 
ATOM     42  C   UNL     1      19.885   3.658  21.088  1.00  0.00    -0.044 A 
ATOM     43  C   UNL     1      21.939   2.901  20.086  1.00  0.00     0.142 A 
ATOM     44  C   UNL     1      21.916   1.141  18.428  1.00  0.00    -0.023 A 
ATOM     45  C   UNL     1      19.146   4.558  22.039  1.00  0.00     0.044 C 
ATOM     46  C   UNL     1      21.253   3.726  20.960  1.00  0.00     0.051 A 
ATOM     47  O   UNL     1      23.263   2.981  19.978  1.00  0.00    -0.422 OA
ATOM     48  C   UNL     1      23.292   1.268  18.356  1.00  0.00     0.042 A 
ATOM     49  C   UNL     1      21.464   0.091  17.503  1.00  0.00     0.037 C 
ATOM     50  C   UNL     1      23.905   2.201  19.153  1.00  0.00     0.339 A 
ATOM     51  C   UNL     1      23.857   0.298  17.369  1.00  0.00     0.044 C 
ATOM     52  C   UNL     1      22.746  -0.721  17.272  1.00  0.00     0.010 C 
ATOM     53  O   UNL     1      25.161   2.305  19.077  1.00  0.00    -0.246 OA
ENDBRANCH  38  39
ENDBRANCH  37  38
ENDBRANCH  34  37
ENDBRANCH   8  33
ENDBRANCH   5   8
ENDBRANCH   3   4
ENDBRANCH   2   3
ENDBRANCH   1   2
BRANCH   1  54
ATOM     54  C   UNL     1      23.444   0.694  13.895  1.00  0.00     0.000 C 
BRANCH  54  55
ATOM     55  C   UNL     1      22.759   1.969  14.251  1.00  0.00     0.000 C 
BRANCH  55  56
ATOM     56  C   UNL     1      23.656   2.928  14.973  1.00  0.00     0.000 C 
BRANCH  56  57
ATOM     57  C   UNL     1      25.068   2.383  14.938  1.00  0.00     0.000 C 
BRANCH  57  58
ATOM     58  C   UNL     1      25.938   3.278  15.798  1.00  0.00     0.000 C 
BRANCH  58  59
ATOM     59  C   UNL     1      25.175   4.541  16.207  1.00  0.00     0.000 C 
BRANCH  59  60
ATOM     60  C   UNL     1      25.886   5.329  17.211  1.00  0.00     0.001 C 
BRANCH  60  61
ATOM     61  C   UNL     1      26.351   6.591  17.418  1.00  0.00     0.009 C 
BRANCH  61  62
ATOM     62  C   UNL     1      26.925   7.894  16.974  1.00  0.00    -0.012 C 
BRANCH  62  63
ATOM     63  C   UNL     1      26.288   8.931  17.909  1.00  0.00    -0.018 C 
ATOM     64  C   UNL     1      24.808   8.674  18.136  1.00  0.00     0.033 C 
ATOM     65  C   UNL     1      26.842   8.878  19.302  1.00  0.00     0.033 C 
ATOM     66  C   UNL     1      26.223  10.318  17.506  1.00  0.00     0.033 C 
ATOM     67  C   UNL     1      24.185   9.518  19.212  1.00  0.00     0.101 C 
ATOM     68  C   UNL     1      26.244   9.888  20.274  1.00  0.00     0.101 C 
ATOM     69  C   UNL     1      25.601  11.255  18.571  1.00  0.00     0.101 C 
ATOM     70  C   UNL     1      24.822   9.454  20.537  1.00  0.00     0.051 C 
ATOM     71  C   UNL     1      24.139  10.968  18.782  1.00  0.00     0.051 C 
ATOM     72  C   UNL     1      26.365  11.296  19.836  1.00  0.00     0.051 C 
BRANCH  67  73
ATOM     73  S   UNL     1      22.465   9.044  19.395  1.00  0.00     0.270 S 
ATOM     74  O   UNL     1      21.846   8.760  18.079  1.00  0.00    -0.199 OA
ATOM     75  O   UNL     1      22.488   7.735  20.166  1.00  0.00    -0.199 OA
BRANCH  73  76
ATOM     76  O   UNL     1      21.620  10.132  20.330  1.00  0.00    -0.285 OA
ATOM     77  H   UNL     1      21.111   9.586  21.004  1.00  0.00     0.234 HD
ENDBRANCH  73  76
ENDBRANCH  67  73
BRANCH  68  78
ATOM     78  S   UNL     1      27.105   9.719  21.832  1.00  0.00     0.270 S 
ATOM     79  O   UNL     1      26.154   9.813  22.967  1.00  0.00    -0.199 OA
ATOM     80  O   UNL     1      28.098  10.864  21.883  1.00  0.00    -0.199 OA
BRANCH  78  81
ATOM     81  O   UNL     1      27.989   8.280  21.867  1.00  0.00    -0.285 OA
ATOM     82  H   UNL     1      27.988   7.912  22.792  1.00  0.00     0.234 HD
ENDBRANCH  78  81
ENDBRANCH  68  78
BRANCH  69  83
ATOM     83  S   UNL     1      25.625  12.919  17.908  1.00  0.00     0.270 S 
ATOM     84  O   UNL     1      26.897  13.607  18.205  1.00  0.00    -0.199 OA
ATOM     85  O   UNL     1      24.530  13.718  18.602  1.00  0.00    -0.199 OA
BRANCH  83  86
ATOM     86  O   UNL     1      25.344  12.930  16.275  1.00  0.00    -0.285 OA
ATOM     87  H   UNL     1      25.181  12.012  15.963  1.00  0.00     0.234 HD
ENDBRANCH  83  86
ENDBRANCH  69  83
ENDBRANCH  62  63
BRANCH  62  88
ATOM     88  C   UNL     1      28.437   7.837  17.056  1.00  0.00    -0.018 C 
ATOM     89  C   UNL     1      29.006   7.975  18.445  1.00  0.00     0.033 C 
ATOM     90  C   UNL     1      29.267   8.596  16.135  1.00  0.00     0.033 C 
ATOM     91  C   UNL     1      28.922   6.386  16.922  1.00  0.00     0.033 C 
ATOM     92  C   UNL     1      30.517   7.700  18.519  1.00  0.00     0.101 C 
ATOM     93  C   UNL     1      30.787   8.492  16.365  1.00  0.00     0.101 C 
ATOM     94  C   UNL     1      30.374   6.212  16.769  1.00  0.00     0.101 C 
ATOM     95  C   UNL     1      31.225   8.785  17.735  1.00  0.00     0.051 C 
ATOM     96  C   UNL     1      30.982   6.364  18.178  1.00  0.00     0.051 C 
ATOM     97  C   UNL     1      31.170   7.078  15.909  1.00  0.00     0.051 C 
BRANCH  92  98
ATOM     98  S   UNL     1      30.967   7.958  20.239  1.00  0.00     0.270 S 
ATOM     99  O   UNL     1      32.465   7.901  20.402  1.00  0.00    -0.199 OA
ATOM    100  O   UNL     1      30.366   6.938  21.135  1.00  0.00    -0.199 OA
BRANCH  98 101
ATOM    101  O   UNL     1      30.444   9.474  20.747  1.00  0.00    -0.285 OA
ATOM    102  H   UNL     1      31.020  10.200  20.397  1.00  0.00     0.234 HD
ENDBRANCH  98 101
ENDBRANCH  92  98
BRANCH  93 103
ATOM    103  S   UNL     1      31.602   9.605  15.240  1.00  0.00     0.270 S 
ATOM    104  O   UNL     1      31.744   8.871  13.937  1.00  0.00    -0.199 OA
ATOM    105  O   UNL     1      30.765  10.822  14.974  1.00  0.00    -0.199 OA
BRANCH 103 106
ATOM    106  O   UNL     1      33.121   9.965  15.801  1.00  0.00    -0.285 OA
ATOM    107  H   UNL     1      33.238   9.772  16.755  1.00  0.00     0.234 HD
ENDBRANCH 103 106
ENDBRANCH  93 103
BRANCH  94 108
ATOM    108  S   UNL     1      30.723   4.510  16.322  1.00  0.00     0.270 S 
ATOM    109  O   UNL     1      31.309   3.861  17.565  1.00  0.00    -0.199 OA
ATOM    110  O   UNL     1      29.479   3.761  15.982  1.00  0.00    -0.199 OA
BRANCH 108 111
ATOM    111  O   UNL     1      31.892   4.441  15.141  1.00  0.00    -0.285 OA
ATOM    112  H   UNL     1      31.757   5.187  14.509  1.00  0.00     0.234 HD
ENDBRANCH 108 111
ENDBRANCH  94 108
ENDBRANCH  62  88
BRANCH  62 113
ATOM    113  C   UNL     1      26.427   8.144  15.536  1.00  0.00    -0.018 C 
ATOM    114  C   UNL     1      26.446   6.974  14.624  1.00  0.00     0.033 C 
ATOM    115  C   UNL     1      24.881   8.209  15.532  1.00  0.00     0.033 C 
ATOM    116  C   UNL     1      26.988   9.248  14.775  1.00  0.00     0.033 C 
ATOM    117  C   UNL     1      25.819   7.239  13.236  1.00  0.00     0.101 C 
ATOM    118  C   UNL     1      24.312   8.705  14.257  1.00  0.00     0.101 C 
ATOM    119  C   UNL     1      26.399   9.437  13.354  1.00  0.00     0.101 C 
ATOM    120  C   UNL     1      24.387   7.524  13.262  1.00  0.00     0.051 C 
ATOM    121  C   UNL     1      26.623   8.254  12.504  1.00  0.00     0.051 C 
ATOM    122  C   UNL     1      24.963   9.832  13.579  1.00  0.00     0.051 C 
BRANCH 117 123
ATOM    123  S   UNL     1      26.024   5.695  12.324  1.00  0.00     0.270 S 
ATOM    124  O   UNL     1      26.148   5.967  10.869  1.00  0.00    -0.199 OA
ATOM    125  O   UNL     1      24.779   4.854  12.543  1.00  0.00    -0.199 OA
BRANCH 123 126
ATOM    126  O   UNL     1      27.318   4.817  12.907  1.00  0.00    -0.285 OA
ATOM    127  H   UNL     1      28.192   5.135  12.602  1.00  0.00     0.234 HD
ENDBRANCH 123 126
ENDBRANCH 117 123
BRANCH 118 128
ATOM    128  S   UNL     1      22.574   9.031  14.434  1.00  0.00     0.270 S 
ATOM    129  O   UNL     1      22.029   9.614  13.169  1.00  0.00    -0.199 OA
ATOM    130  O   UNL     1      21.822   7.755  14.781  1.00  0.00    -0.199 OA
BRANCH 128 131
ATOM    131  O   UNL     1      22.304  10.114  15.674  1.00  0.00    -0.285 OA
ATOM    132  H   UNL     1      22.151   9.698  16.537  1.00  0.00     0.234 HD
ENDBRANCH 128 131
ENDBRANCH 118 128
BRANCH 119 133
ATOM    133  S   UNL     1      27.259  10.800  12.594  1.00  0.00     0.270 S 
ATOM    134  O   UNL     1      26.967  12.013  13.429  1.00  0.00    -0.199 OA
ATOM    135  O   UNL     1      28.732  10.529  12.484  1.00  0.00    -0.199 OA
BRANCH 133 136
ATOM    136  O   UNL     1      26.570  11.085  11.077  1.00  0.00    -0.285 OA
ATOM    137  H   UNL     1      26.806  11.980  10.720  1.00  0.00     0.234 HD
ENDBRANCH 133 136
ENDBRANCH 119 133
ENDBRANCH  62 113
ENDBRANCH  61  62
ENDBRANCH  60  61
ENDBRANCH  59  60
ENDBRANCH  58  59
ENDBRANCH  57  58
ENDBRANCH  56  57
ENDBRANCH  55  56
ENDBRANCH  54  55
ENDBRANCH   1  54
TORSDOF 45
ENDMDL
MODEL 5
REMARK VINA RESULT:   -10.669      1.352      4.248
REMARK INTER + INTRA:         -46.166
REMARK INTER:                 -36.156
REMARK INTRA:                 -10.010
REMARK UNBOUND:               -10.237
REMARK SMILES Cc1cc(OCC(=O)N[C@H](CNC(=O)c2cccc(COc3ccccc3C(N)=O)c2)C(=O)NCCCCCCCCCCCC([C@]23C[C@]4(S(=O)(=O)O)C[C@](S(=O)(=O)O)(C2)C[C@](S(=O)(=O)O)(C3)C4)([C@]23C[C@]4(S(=O)(=O)O)C[C@](S(=O)(=O)O)(C2)C[C@](S(=O)(=O)O)(C3)C4)[C@]23C[C@]4(S(=O)(=O)O)C[C@](S(=O)(=O)O)(C2)C[C@](S(=O)(=O)O)(C3)C4)c2c3c(c(=O)oc2c1)CCC3
REMARK SMILES IDX 37 1 36 2 35 3 34 4 32 5 33 6 10 8 11 9 12 10 14 11 13 12
REMARK SMILES IDX 15 14 16 15 31 16 17 17 19 18 18 19 20 20 21 21 22 22 27 23
REMARK SMILES IDX 23 24 26 25 24 26 25 27 28 28 29 29 30 30 9 33 7 34 8 36
REMARK SMILES IDX 6 37 5 38 4 39 3 40 113 41 2 42 119 43 114 44 1 45 120 46
REMARK SMILES IDX 118 47 115 48 123 49 116 50 121 51 122 52 117 53 38 54 39 55
REMARK SMILES IDX 40 56 41 57 42 58 43 59 44 60 45 61 46 62 69 63 82 64 89 65
REMARK SMILES IDX 70 66 77 67 84 68 71 69 83 70 76 71 90 72 78 73 79 74 80 75
REMARK SMILES IDX 81 76 85 78 86 79 87 80 88 81 72 83 73 84 74 85 75 86 47 88
REMARK SMILES IDX 48 89 60 90 67 91 49 92 55 93 62 94 54 95 68 96 61 97 50 98
REMARK SMILES IDX 51 99 52 100 53 101 56 103 57 104 58 105 59 106 63 108
REMARK SMILES IDX 64 109 65 110 66 111 91 113 104 114 111 115 92 116 99 117
REMARK SMILES IDX 106 118 93 119 105 120 98 121 112 122 100 123 101 124
REMARK SMILES IDX 102 125 103 126 107 128 108 129 109 130 110 131 94 133
REMARK SMILES IDX 95 134 96 135 97 136
REMARK H PARENT 34 7 12 13 29 31 29 32 9 35 81 77 88 82 75 87 53 102 59 107
REMARK H PARENT 66 112 103 127 110 132 97 137
REMARK Flexibility Score: inf
ROOT
ATOM      1  C   UNL     1      22.577  -0.052  12.893  1.00  0.00     0.002 C 
ENDROOT
BRANCH   1   2
ATOM      2  C   UNL     1      22.541  -1.507  13.107  1.00  0.00     0.021 C 
BRANCH   2   3
ATOM      3  C   UNL     1      21.588  -2.154  14.016  1.00  0.00     0.116 C 
BRANCH   3   4
ATOM      4  N   UNL     1      20.302  -1.576  14.208  1.00  0.00    -0.354 N 
ATOM      5  C   UNL     1      19.232  -2.077  14.945  1.00  0.00     0.244 C 
ATOM      6  O   UNL     1      19.280  -3.177  15.526  1.00  0.00    -0.273 OA
ATOM      7  H   UNL     1      20.112  -0.626  13.729  1.00  0.00     0.163 HD
BRANCH   5   8
ATOM      8  C   UNL     1      17.932  -1.337  15.102  1.00  0.00     0.190 C 
BRANCH   8   9
ATOM      9  C   UNL     1      16.730  -2.097  14.767  1.00  0.00     0.151 C 
BRANCH   9  10
ATOM     10  N   UNL     1      16.864  -3.393  14.193  1.00  0.00    -0.349 N 
ATOM     11  O   UNL     1      15.090  -3.353  12.701  1.00  0.00    -0.269 OA
ATOM     12  C   UNL     1      16.074  -3.983  13.203  1.00  0.00     0.251 C 
ATOM     13  H   UNL     1      17.677  -4.015  14.566  1.00  0.00     0.163 HD
BRANCH  12  14
ATOM     14  C   UNL     1      16.306  -5.308  12.689  1.00  0.00     0.040 A 
ATOM     15  C   UNL     1      17.209  -6.160  13.307  1.00  0.00     0.014 A 
ATOM     16  C   UNL     1      15.630  -5.804  11.608  1.00  0.00     0.021 A 
ATOM     17  C   UNL     1      17.392  -7.433  12.834  1.00  0.00     0.001 A 
ATOM     18  C   UNL     1      15.801  -7.098  11.112  1.00  0.00    -0.010 A 
ATOM     19  C   UNL     1      16.704  -7.922  11.746  1.00  0.00     0.007 A 
BRANCH  18  20
ATOM     20  C   UNL     1      15.066  -7.613   9.945  1.00  0.00     0.265 C 
BRANCH  20  21
ATOM     21  O   UNL     1      15.076  -8.995   9.823  1.00  0.00    -0.488 OA
BRANCH  21  22
ATOM     22  C   UNL     1      14.763  -9.674   8.682  1.00  0.00     0.132 A 
ATOM     23  C   UNL     1      15.775  -9.752   7.711  1.00  0.00     0.081 A 
ATOM     24  C   UNL     1      13.547 -10.260   8.446  1.00  0.00     0.047 A 
ATOM     25  C   UNL     1      15.508 -10.426   6.539  1.00  0.00     0.018 A 
ATOM     26  C   UNL     1      13.336 -10.925   7.248  1.00  0.00     0.004 A 
ATOM     27  C   UNL     1      14.300 -11.012   6.299  1.00  0.00     0.001 A 
BRANCH  23  28
ATOM     28  C   UNL     1      17.055  -9.131   7.964  1.00  0.00     0.252 C 
ATOM     29  N   UNL     1      17.961  -9.764   8.856  1.00  0.00    -0.365 N 
ATOM     30  O   UNL     1      17.353  -8.057   7.404  1.00  0.00    -0.269 OA
ATOM     31  H   UNL     1      18.095  -9.450   9.836  1.00  0.00     0.159 HD
ATOM     32  H   UNL     1      18.510 -10.589   8.480  1.00  0.00     0.159 HD
ENDBRANCH  23  28
ENDBRANCH  21  22
ENDBRANCH  20  21
ENDBRANCH  18  20
ENDBRANCH  12  14
ENDBRANCH   9  10
ENDBRANCH   8   9
BRANCH   8  33
ATOM     33  N   UNL     1      17.894  -0.674  16.362  1.00  0.00    -0.340 N 
ATOM     34  C   UNL     1      18.184   0.701  16.488  1.00  0.00     0.258 C 
ATOM     35  H   UNL     1      17.672  -1.236  17.240  1.00  0.00     0.164 HD
ATOM     36  O   UNL     1      18.493   1.373  15.452  1.00  0.00    -0.271 OA
BRANCH  34  37
ATOM     37  C   UNL     1      18.136   1.389  17.809  1.00  0.00     0.329 C 
BRANCH  37  38
ATOM     38  O   UNL     1      19.184   0.988  18.635  1.00  0.00    -0.483 OA
BRANCH  38  39
ATOM     39  C   UNL     1      19.829   1.909  19.439  1.00  0.00     0.131 A 
ATOM     40  C   UNL     1      19.173   2.737  20.327  1.00  0.00     0.050 A 
ATOM     41  C   UNL     1      21.220   1.955  19.299  1.00  0.00     0.063 A 
ATOM     42  C   UNL     1      19.891   3.632  21.095  1.00  0.00    -0.044 A 
ATOM     43  C   UNL     1      21.921   2.847  20.067  1.00  0.00     0.142 A 
ATOM     44  C   UNL     1      21.850   1.102  18.394  1.00  0.00    -0.023 A 
ATOM     45  C   UNL     1      19.177   4.536  22.062  1.00  0.00     0.044 C 
ATOM     46  C   UNL     1      21.258   3.676  20.954  1.00  0.00     0.051 A 
ATOM     47  O   UNL     1      23.245   2.903  19.946  1.00  0.00    -0.422 OA
ATOM     48  C   UNL     1      23.227   1.204  18.309  1.00  0.00     0.042 A 
ATOM     49  C   UNL     1      21.369   0.068  17.465  1.00  0.00     0.037 C 
ATOM     50  C   UNL     1      23.865   2.120  19.108  1.00  0.00     0.339 A 
ATOM     51  C   UNL     1      23.765   0.233  17.308  1.00  0.00     0.044 C 
ATOM     52  C   UNL     1      22.635  -0.764  17.214  1.00  0.00     0.010 C 
ATOM     53  O   UNL     1      25.122   2.200  19.021  1.00  0.00    -0.246 OA
ENDBRANCH  38  39
ENDBRANCH  37  38
ENDBRANCH  34  37
ENDBRANCH   8  33
ENDBRANCH   5   8
ENDBRANCH   3   4
ENDBRANCH   2   3
ENDBRANCH   1   2
BRANCH   1  54
ATOM     54  C   UNL     1      23.390   0.741  13.919  1.00  0.00     0.000 C 
BRANCH  54  55
ATOM     55  C   UNL     1      22.683   2.005  14.270  1.00  0.00     0.000 C 
BRANCH  55  56
ATOM     56  C   UNL     1      23.591   3.028  14.881  1.00  0.00     0.000 C 
BRANCH  56  57
ATOM     57  C   UNL     1      25.016   2.527  14.777  1.00  0.00     0.000 C 
BRANCH  57  58
ATOM     58  C   UNL     1      25.873   3.347  15.721  1.00  0.00     0.000 C 
BRANCH  58  59
ATOM     59  C   UNL     1      25.026   4.403  16.437  1.00  0.00     0.000 C 
BRANCH  59  60
ATOM     60  C   UNL     1      25.801   5.195  17.390  1.00  0.00     0.001 C 
BRANCH  60  61
ATOM     61  C   UNL     1      26.502   6.359  17.462  1.00  0.00     0.009 C 
BRANCH  61  62
ATOM     62  C   UNL     1      26.996   7.657  16.920  1.00  0.00    -0.012 C 
BRANCH  62  63
ATOM     63  C   UNL     1      26.564   8.697  17.962  1.00  0.00    -0.018 C 
ATOM     64  C   UNL     1      26.669  10.119  17.437  1.00  0.00     0.033 C 
ATOM     65  C   UNL     1      25.113   8.593  18.324  1.00  0.00     0.033 C 
ATOM     66  C   UNL     1      27.321   8.847  19.185  1.00  0.00     0.033 C 
ATOM     67  C   UNL     1      26.051  11.161  18.327  1.00  0.00     0.101 C 
ATOM     68  C   UNL     1      24.629   9.604  19.356  1.00  0.00     0.101 C 
ATOM     69  C   UNL     1      26.738   9.899  20.162  1.00  0.00     0.101 C 
ATOM     70  C   UNL     1      24.638  10.956  18.683  1.00  0.00     0.051 C 
ATOM     71  C   UNL     1      26.844  11.293  19.609  1.00  0.00     0.051 C 
ATOM     72  C   UNL     1      25.376   9.571  20.633  1.00  0.00     0.051 C 
BRANCH  67  73
ATOM     73  S   UNL     1      26.200  12.762  17.533  1.00  0.00     0.270 S 
ATOM     74  O   UNL     1      25.690  13.843  18.408  1.00  0.00    -0.199 OA
ATOM     75  O   UNL     1      27.693  12.992  17.369  1.00  0.00    -0.199 OA
BRANCH  73  76
ATOM     76  O   UNL     1      25.550  12.756  16.001  1.00  0.00    -0.285 OA
ATOM     77  H   UNL     1      26.134  13.357  15.445  1.00  0.00     0.234 HD
ENDBRANCH  73  76
ENDBRANCH  67  73
BRANCH  68  78
ATOM     78  S   UNL     1      22.914   9.243  19.710  1.00  0.00     0.270 S 
ATOM     79  O   UNL     1      22.042   9.712  18.605  1.00  0.00    -0.199 OA
ATOM     80  O   UNL     1      22.589   9.990  20.989  1.00  0.00    -0.199 OA
BRANCH  78  81
ATOM     81  O   UNL     1      22.708   7.595  20.020  1.00  0.00    -0.285 OA
ATOM     82  H   UNL     1      21.738   7.392  20.106  1.00  0.00     0.234 HD
ENDBRANCH  78  81
ENDBRANCH  68  78
BRANCH  69  83
ATOM     83  S   UNL     1      27.786   9.926  21.614  1.00  0.00     0.270 S 
ATOM     84  O   UNL     1      26.999   9.815  22.858  1.00  0.00    -0.199 OA
ATOM     85  O   UNL     1      28.484  11.279  21.665  1.00  0.00    -0.199 OA
BRANCH  83  86
ATOM     86  O   UNL     1      28.934   8.732  21.563  1.00  0.00    -0.285 OA
ATOM     87  H   UNL     1      29.090   8.466  20.629  1.00  0.00     0.234 HD
ENDBRANCH  83  86
ENDBRANCH  69  83
ENDBRANCH  62  63
BRANCH  62  88
ATOM     88  C   UNL     1      28.496   7.581  16.710  1.00  0.00    -0.018 C 
ATOM     89  C   UNL     1      29.326   8.073  17.867  1.00  0.00     0.033 C 
ATOM     90  C   UNL     1      29.103   8.040  15.471  1.00  0.00     0.033 C 
ATOM     91  C   UNL     1      28.983   6.135  16.878  1.00  0.00     0.033 C 
ATOM     92  C   UNL     1      30.829   7.786  17.709  1.00  0.00     0.101 C 
ATOM     93  C   UNL     1      30.641   7.959  15.412  1.00  0.00     0.101 C 
ATOM     94  C   UNL     1      30.380   5.885  16.491  1.00  0.00     0.101 C 
ATOM     95  C   UNL     1      31.336   8.598  16.536  1.00  0.00     0.051 C 
ATOM     96  C   UNL     1      31.252   6.395  17.655  1.00  0.00     0.051 C 
ATOM     97  C   UNL     1      30.963   6.464  15.288  1.00  0.00     0.051 C 
BRANCH  92  98
ATOM     98  S   UNL     1      31.607   8.485  19.169  1.00  0.00     0.270 S 
ATOM     99  O   UNL     1      30.892   9.744  19.591  1.00  0.00    -0.199 OA
ATOM    100  O   UNL     1      33.034   8.821  18.937  1.00  0.00    -0.199 OA
BRANCH  98 101
ATOM    101  O   UNL     1      31.527   7.388  20.442  1.00  0.00    -0.285 OA
ATOM    102  H   UNL     1      30.598   7.089  20.615  1.00  0.00     0.234 HD
ENDBRANCH  98 101
ENDBRANCH  92  98
BRANCH  93 103
ATOM    103  S   UNL     1      31.184   8.703  13.889  1.00  0.00     0.270 S 
ATOM    104  O   UNL     1      31.872   7.623  13.105  1.00  0.00    -0.199 OA
ATOM    105  O   UNL     1      30.021   9.175  13.066  1.00  0.00    -0.199 OA
BRANCH 103 106
ATOM    106  O   UNL     1      32.289   9.899  14.206  1.00  0.00    -0.285 OA
ATOM    107  H   UNL     1      32.961   9.640  14.870  1.00  0.00     0.234 HD
ENDBRANCH 103 106
ENDBRANCH  93 103
BRANCH  94 108
ATOM    108  S   UNL     1      30.678   4.117  16.460  1.00  0.00     0.270 S 
ATOM    109  O   UNL     1      31.132   3.743  17.860  1.00  0.00    -0.199 OA
ATOM    110  O   UNL     1      29.430   3.349  16.184  1.00  0.00    -0.199 OA
BRANCH 108 111
ATOM    111  O   UNL     1      31.931   3.751  15.429  1.00  0.00    -0.285 OA
ATOM    112  H   UNL     1      32.784   4.009  15.853  1.00  0.00     0.234 HD
ENDBRANCH 108 111
ENDBRANCH  94 108
ENDBRANCH  62  88
BRANCH  62 113
ATOM    113  C   UNL     1      26.236   7.921  15.604  1.00  0.00    -0.018 C 
ATOM    114  C   UNL     1      24.807   8.298  15.737  1.00  0.00     0.033 C 
ATOM    115  C   UNL     1      26.624   9.315  15.057  1.00  0.00     0.033 C 
ATOM    116  C   UNL     1      26.284   6.924  14.547  1.00  0.00     0.033 C 
ATOM    117  C   UNL     1      24.122   8.678  14.406  1.00  0.00     0.101 C 
ATOM    118  C   UNL     1      26.159   9.559  13.672  1.00  0.00     0.101 C 
ATOM    119  C   UNL     1      25.517   7.297  13.253  1.00  0.00     0.101 C 
ATOM    120  C   UNL     1      24.650   9.884  13.774  1.00  0.00     0.051 C 
ATOM    121  C   UNL     1      24.078   7.495  13.504  1.00  0.00     0.051 C 
ATOM    122  C   UNL     1      26.261   8.476  12.686  1.00  0.00     0.051 C 
BRANCH 117 123
ATOM    123  S   UNL     1      22.406   9.030  14.841  1.00  0.00     0.270 S 
ATOM    124  O   UNL     1      21.507   8.708  13.705  1.00  0.00    -0.199 OA
ATOM    125  O   UNL     1      22.293  10.517  15.126  1.00  0.00    -0.199 OA
BRANCH 123 126
ATOM    126  O   UNL     1      21.961   8.229  16.236  1.00  0.00    -0.285 OA
ATOM    127  H   UNL     1      21.227   8.650  16.728  1.00  0.00     0.234 HD
ENDBRANCH 123 126
ENDBRANCH 117 123
BRANCH 118 128
ATOM    128  S   UNL     1      26.892  11.040  13.018  1.00  0.00     0.270 S 
ATOM    129  O   UNL     1      27.270  10.838  11.586  1.00  0.00    -0.199 OA
ATOM    130  O   UNL     1      25.929  12.213  13.137  1.00  0.00    -0.199 OA
BRANCH 128 131
ATOM    131  O   UNL     1      28.265  11.443  13.877  1.00  0.00    -0.285 OA
ATOM    132  H   UNL     1      28.188  11.307  14.835  1.00  0.00     0.234 HD
ENDBRANCH 128 131
ENDBRANCH 118 128
BRANCH 119 133
ATOM    133  S   UNL     1      25.668   5.925  12.126  1.00  0.00     0.270 S 
ATOM    134  O   UNL     1      24.393   5.139  12.232  1.00  0.00    -0.199 OA
ATOM    135  O   UNL     1      25.931   6.391  10.723  1.00  0.00    -0.199 OA
BRANCH 133 136
ATOM    136  O   UNL     1      26.904   4.913  12.681  1.00  0.00    -0.285 OA
ATOM    137  H   UNL     1      26.716   3.957  12.496  1.00  0.00     0.234 HD
ENDBRANCH 133 136
ENDBRANCH 119 133
ENDBRANCH  62 113
ENDBRANCH  61  62
ENDBRANCH  60  61
ENDBRANCH  59  60
ENDBRANCH  58  59
ENDBRANCH  57  58
ENDBRANCH  56  57
ENDBRANCH  55  56
ENDBRANCH  54  55
ENDBRANCH   1  54
TORSDOF 45
ENDMDL
MODEL 6
REMARK VINA RESULT:   -10.658      0.406      5.615
REMARK INTER + INTRA:         -46.128
REMARK INTER:                 -36.148
REMARK INTRA:                  -9.980
REMARK UNBOUND:               -10.237
REMARK SMILES Cc1cc(OCC(=O)N[C@H](CNC(=O)c2cccc(COc3ccccc3C(N)=O)c2)C(=O)NCCCCCCCCCCCC([C@]23C[C@]4(S(=O)(=O)O)C[C@](S(=O)(=O)O)(C2)C[C@](S(=O)(=O)O)(C3)C4)([C@]23C[C@]4(S(=O)(=O)O)C[C@](S(=O)(=O)O)(C2)C[C@](S(=O)(=O)O)(C3)C4)[C@]23C[C@]4(S(=O)(=O)O)C[C@](S(=O)(=O)O)(C2)C[C@](S(=O)(=O)O)(C3)C4)c2c3c(c(=O)oc2c1)CCC3
REMARK SMILES IDX 37 1 36 2 35 3 34 4 32 5 33 6 10 8 11 9 12 10 14 11 13 12
REMARK SMILES IDX 15 14 16 15 31 16 17 17 19 18 18 19 20 20 21 21 22 22 27 23
REMARK SMILES IDX 23 24 26 25 24 26 25 27 28 28 29 29 30 30 9 33 7 34 8 36
REMARK SMILES IDX 6 37 5 38 4 39 3 40 113 41 2 42 119 43 114 44 1 45 120 46
REMARK SMILES IDX 118 47 115 48 123 49 116 50 121 51 122 52 117 53 38 54 39 55
REMARK SMILES IDX 40 56 41 57 42 58 43 59 44 60 45 61 46 62 69 63 82 64 89 65
REMARK SMILES IDX 70 66 77 67 84 68 71 69 83 70 76 71 90 72 78 73 79 74 80 75
REMARK SMILES IDX 81 76 85 78 86 79 87 80 88 81 72 83 73 84 74 85 75 86 47 88
REMARK SMILES IDX 48 89 60 90 67 91 49 92 55 93 62 94 54 95 68 96 61 97 50 98
REMARK SMILES IDX 51 99 52 100 53 101 56 103 57 104 58 105 59 106 63 108
REMARK SMILES IDX 64 109 65 110 66 111 91 113 104 114 111 115 92 116 99 117
REMARK SMILES IDX 106 118 93 119 105 120 98 121 112 122 100 123 101 124
REMARK SMILES IDX 102 125 103 126 107 128 108 129 109 130 110 131 94 133
REMARK SMILES IDX 95 134 96 135 97 136
REMARK H PARENT 34 7 12 13 29 31 29 32 9 35 81 77 88 82 75 87 53 102 59 107
REMARK H PARENT 66 112 103 127 110 132 97 137
REMARK Flexibility Score: inf
ROOT
ATOM      1  C   UNL     1      22.578   0.015  13.085  1.00  0.00     0.002 C 
ENDROOT
BRANCH   1   2
ATOM      2  C   UNL     1      22.667  -1.438  13.296  1.00  0.00     0.021 C 
BRANCH   2   3
ATOM      3  C   UNL     1      21.647  -2.199  14.028  1.00  0.00     0.116 C 
BRANCH   3   4
ATOM      4  N   UNL     1      20.350  -1.642  14.203  1.00  0.00    -0.354 N 
ATOM      5  C   UNL     1      19.289  -2.144  14.954  1.00  0.00     0.244 C 
ATOM      6  O   UNL     1      19.358  -3.225  15.565  1.00  0.00    -0.273 OA
ATOM      7  H   UNL     1      20.142  -0.709  13.698  1.00  0.00     0.163 HD
BRANCH   5   8
ATOM      8  C   UNL     1      17.974  -1.425  15.089  1.00  0.00     0.190 C 
BRANCH   8   9
ATOM      9  C   UNL     1      16.788  -2.223  14.791  1.00  0.00     0.151 C 
BRANCH   9  10
ATOM     10  N   UNL     1      16.941  -3.493  14.165  1.00  0.00    -0.349 N 
ATOM     11  O   UNL     1      14.941  -3.608  13.000  1.00  0.00    -0.269 OA
ATOM     12  C   UNL     1      16.051  -4.145  13.309  1.00  0.00     0.251 C 
ATOM     13  H   UNL     1      17.862  -4.037  14.376  1.00  0.00     0.163 HD
BRANCH  12  14
ATOM     14  C   UNL     1      16.315  -5.435  12.725  1.00  0.00     0.040 A 
ATOM     15  C   UNL     1      17.300  -6.261  13.245  1.00  0.00     0.014 A 
ATOM     16  C   UNL     1      15.593  -5.923  11.671  1.00  0.00     0.021 A 
ATOM     17  C   UNL     1      17.514  -7.503  12.708  1.00  0.00     0.001 A 
ATOM     18  C   UNL     1      15.796  -7.186  11.109  1.00  0.00    -0.010 A 
ATOM     19  C   UNL     1      16.780  -7.984  11.647  1.00  0.00     0.007 A 
BRANCH  18  20
ATOM     20  C   UNL     1      15.010  -7.693   9.972  1.00  0.00     0.265 C 
BRANCH  20  21
ATOM     21  O   UNL     1      15.145  -9.055   9.741  1.00  0.00    -0.488 OA
BRANCH  21  22
ATOM     22  C   UNL     1      14.761  -9.687   8.595  1.00  0.00     0.132 A 
ATOM     23  C   UNL     1      15.716  -9.737   7.566  1.00  0.00     0.081 A 
ATOM     24  C   UNL     1      13.528 -10.255   8.408  1.00  0.00     0.047 A 
ATOM     25  C   UNL     1      15.377 -10.364   6.387  1.00  0.00     0.018 A 
ATOM     26  C   UNL     1      13.243 -10.873   7.200  1.00  0.00     0.004 A 
ATOM     27  C   UNL     1      14.151 -10.931   6.195  1.00  0.00     0.001 A 
BRANCH  23  28
ATOM     28  C   UNL     1      17.014  -9.136   7.769  1.00  0.00     0.252 C 
ATOM     29  N   UNL     1      17.222  -7.793   7.356  1.00  0.00    -0.365 N 
ATOM     30  O   UNL     1      17.934  -9.791   8.300  1.00  0.00    -0.269 OA
ATOM     31  H   UNL     1      17.718  -7.546   6.478  1.00  0.00     0.159 HD
ATOM     32  H   UNL     1      16.843  -7.031   7.988  1.00  0.00     0.159 HD
ENDBRANCH  23  28
ENDBRANCH  21  22
ENDBRANCH  20  21
ENDBRANCH  18  20
ENDBRANCH  12  14
ENDBRANCH   9  10
ENDBRANCH   8   9
BRANCH   8  33
ATOM     33  N   UNL     1      17.929  -0.714  16.322  1.00  0.00    -0.340 N 
ATOM     34  C   UNL     1      18.213   0.666  16.396  1.00  0.00     0.258 C 
ATOM     35  H   UNL     1      17.706  -1.242  17.220  1.00  0.00     0.164 HD
ATOM     36  O   UNL     1      18.523   1.299  15.335  1.00  0.00    -0.271 OA
BRANCH  34  37
ATOM     37  C   UNL     1      18.156   1.405  17.688  1.00  0.00     0.329 C 
BRANCH  37  38
ATOM     38  O   UNL     1      19.154   0.982  18.565  1.00  0.00    -0.483 OA
BRANCH  38  39
ATOM     39  C   UNL     1      19.798   1.894  19.379  1.00  0.00     0.131 A 
ATOM     40  C   UNL     1      19.139   2.731  20.257  1.00  0.00     0.050 A 
ATOM     41  C   UNL     1      21.192   1.920  19.262  1.00  0.00     0.063 A 
ATOM     42  C   UNL     1      19.857   3.617  21.036  1.00  0.00    -0.044 A 
ATOM     43  C   UNL     1      21.893   2.803  20.041  1.00  0.00     0.142 A 
ATOM     44  C   UNL     1      21.825   1.058  18.368  1.00  0.00    -0.023 A 
ATOM     45  C   UNL     1      19.140   4.531  21.991  1.00  0.00     0.044 C 
ATOM     46  C   UNL     1      21.227   3.641  20.918  1.00  0.00     0.051 A 
ATOM     47  O   UNL     1      23.219   2.840  19.943  1.00  0.00    -0.422 OA
ATOM     48  C   UNL     1      23.204   1.141  18.306  1.00  0.00     0.042 A 
ATOM     49  C   UNL     1      21.345   0.031  17.431  1.00  0.00     0.037 C 
ATOM     50  C   UNL     1      23.842   2.048  19.116  1.00  0.00     0.339 A 
ATOM     51  C   UNL     1      23.745   0.162  17.315  1.00  0.00     0.044 C 
ATOM     52  C   UNL     1      22.603  -0.820  17.202  1.00  0.00     0.010 C 
ATOM     53  O   UNL     1      25.101   2.111  19.049  1.00  0.00    -0.246 OA
ENDBRANCH  38  39
ENDBRANCH  37  38
ENDBRANCH  34  37
ENDBRANCH   8  33
ENDBRANCH   5   8
ENDBRANCH   3   4
ENDBRANCH   2   3
ENDBRANCH   1   2
BRANCH   1  54
ATOM     54  C   UNL     1      23.517   0.860  13.949  1.00  0.00     0.000 C 
BRANCH  54  55
ATOM     55  C   UNL     1      22.837   2.118  14.370  1.00  0.00     0.000 C 
BRANCH  55  56
ATOM     56  C   UNL     1      23.747   3.050  15.110  1.00  0.00     0.000 C 
BRANCH  56  57
ATOM     57  C   UNL     1      25.159   2.512  15.023  1.00  0.00     0.000 C 
BRANCH  57  58
ATOM     58  C   UNL     1      26.055   3.404  15.860  1.00  0.00     0.000 C 
BRANCH  58  59
ATOM     59  C   UNL     1      25.218   4.394  16.675  1.00  0.00     0.000 C 
BRANCH  59  60
ATOM     60  C   UNL     1      25.932   5.638  16.954  1.00  0.00     0.001 C 
BRANCH  60  61
ATOM     61  C   UNL     1      25.727   6.983  16.976  1.00  0.00     0.009 C 
BRANCH  61  62
ATOM     62  C   UNL     1      26.119   8.399  16.719  1.00  0.00    -0.012 C 
BRANCH  62  63
ATOM     63  C   UNL     1      24.795   9.175  16.756  1.00  0.00    -0.018 C 
ATOM     64  C   UNL     1      23.803   8.674  15.721  1.00  0.00     0.033 C 
ATOM     65  C   UNL     1      24.044   8.987  18.041  1.00  0.00     0.033 C 
ATOM     66  C   UNL     1      24.778  10.583  16.429  1.00  0.00     0.033 C 
ATOM     67  C   UNL     1      22.417   9.241  15.858  1.00  0.00     0.101 C 
ATOM     68  C   UNL     1      22.721   9.736  18.131  1.00  0.00     0.101 C 
ATOM     69  C   UNL     1      23.382  11.244  16.558  1.00  0.00     0.101 C 
ATOM     70  C   UNL     1      21.771   9.065  17.167  1.00  0.00     0.051 C 
ATOM     71  C   UNL     1      22.420  10.717  15.529  1.00  0.00     0.051 C 
ATOM     72  C   UNL     1      22.836  11.198  17.930  1.00  0.00     0.051 C 
BRANCH  67  73
ATOM     73  S   UNL     1      21.364   8.499  14.610  1.00  0.00     0.270 S 
ATOM     74  O   UNL     1      20.006   8.237  15.143  1.00  0.00    -0.199 OA
ATOM     75  O   UNL     1      21.219   9.555  13.527  1.00  0.00    -0.199 OA
BRANCH  73  76
ATOM     76  O   UNL     1      22.086   7.180  13.895  1.00  0.00    -0.285 OA
ATOM     77  H   UNL     1      21.518   6.947  13.099  1.00  0.00     0.234 HD
ENDBRANCH  73  76
ENDBRANCH  67  73
BRANCH  68  78
ATOM     78  S   UNL     1      22.046   9.455  19.762  1.00  0.00     0.270 S 
ATOM     79  O   UNL     1      20.624   9.039  19.675  1.00  0.00    -0.199 OA
ATOM     80  O   UNL     1      22.162  10.779  20.493  1.00  0.00    -0.199 OA
BRANCH  78  81
ATOM     81  O   UNL     1      22.982   8.328  20.604  1.00  0.00    -0.285 OA
ATOM     82  H   UNL     1      23.313   8.736  21.449  1.00  0.00     0.234 HD
ENDBRANCH  78  81
ENDBRANCH  68  78
BRANCH  69  83
ATOM     83  S   UNL     1      23.563  12.975  16.139  1.00  0.00     0.270 S 
ATOM     84  O   UNL     1      22.511  13.802  16.764  1.00  0.00    -0.199 OA
ATOM     85  O   UNL     1      23.385  13.116  14.633  1.00  0.00    -0.199 OA
BRANCH  83  86
ATOM     86  O   UNL     1      25.059  13.553  16.557  1.00  0.00    -0.285 OA
ATOM     87  H   UNL     1      25.010  14.526  16.690  1.00  0.00     0.234 HD
ENDBRANCH  83  86
ENDBRANCH  69  83
ENDBRANCH  62  63
BRANCH  62  88
ATOM     88  C   UNL     1      27.124   8.845  17.763  1.00  0.00    -0.018 C 
ATOM     89  C   UNL     1      27.646  10.248  17.586  1.00  0.00     0.033 C 
ATOM     90  C   UNL     1      28.225   7.984  18.159  1.00  0.00     0.033 C 
ATOM     91  C   UNL     1      26.406   9.199  19.074  1.00  0.00     0.033 C 
ATOM     92  C   UNL     1      28.492  10.741  18.771  1.00  0.00     0.101 C 
ATOM     93  C   UNL     1      29.204   8.583  19.188  1.00  0.00     0.101 C 
ATOM     94  C   UNL     1      27.279   9.440  20.233  1.00  0.00     0.101 C 
ATOM     95  C   UNL     1      29.748   9.898  18.829  1.00  0.00     0.051 C 
ATOM     96  C   UNL     1      27.839  10.867  20.065  1.00  0.00     0.051 C 
ATOM     97  C   UNL     1      28.436   8.601  20.515  1.00  0.00     0.051 C 
BRANCH  92  98
ATOM     98  S   UNL     1      29.026  12.397  18.323  1.00  0.00     0.270 S 
ATOM     99  O   UNL     1      29.911  12.348  17.103  1.00  0.00    -0.199 OA
ATOM    100  O   UNL     1      29.783  13.056  19.416  1.00  0.00    -0.199 OA
BRANCH  98 101
ATOM    101  O   UNL     1      27.690  13.352  17.961  1.00  0.00    -0.285 OA
ATOM    102  H   UNL     1      26.915  12.808  17.667  1.00  0.00     0.234 HD
ENDBRANCH  98 101
ENDBRANCH  92  98
BRANCH  93 103
ATOM    103  S   UNL     1      30.547   7.437  19.417  1.00  0.00     0.270 S 
ATOM    104  O   UNL     1      30.494   6.477  18.263  1.00  0.00    -0.199 OA
ATOM    105  O   UNL     1      31.876   8.132  19.353  1.00  0.00    -0.199 OA
BRANCH 103 106
ATOM    106  O   UNL     1      30.325   6.577  20.819  1.00  0.00    -0.285 OA
ATOM    107  H   UNL     1      30.903   6.874  21.552  1.00  0.00     0.234 HD
ENDBRANCH 103 106
ENDBRANCH  93 103
BRANCH  94 108
ATOM    108  S   UNL     1      26.280   9.531  21.719  1.00  0.00     0.270 S 
ATOM    109  O   UNL     1      25.650   8.159  21.888  1.00  0.00    -0.199 OA
ATOM    110  O   UNL     1      27.112   9.783  22.931  1.00  0.00    -0.199 OA
BRANCH 108 111
ATOM    111  O   UNL     1      25.035  10.617  21.523  1.00  0.00    -0.285 OA
ATOM    112  H   UNL     1      25.306  11.489  21.895  1.00  0.00     0.234 HD
ENDBRANCH 108 111
ENDBRANCH  94 108
ENDBRANCH  62  88
BRANCH  62 113
ATOM    113  C   UNL     1      26.696   8.460  15.291  1.00  0.00    -0.018 C 
ATOM    114  C   UNL     1      28.157   8.237  15.164  1.00  0.00     0.033 C 
ATOM    115  C   UNL     1      26.362   7.145  14.545  1.00  0.00     0.033 C 
ATOM    116  C   UNL     1      26.398   9.612  14.456  1.00  0.00     0.033 C 
ATOM    117  C   UNL     1      28.669   8.178  13.707  1.00  0.00     0.101 C 
ATOM    118  C   UNL     1      26.636   7.202  13.091  1.00  0.00     0.101 C 
ATOM    119  C   UNL     1      26.995   9.563  13.026  1.00  0.00     0.101 C 
ATOM    120  C   UNL     1      28.167   7.046  12.933  1.00  0.00     0.051 C 
ATOM    121  C   UNL     1      28.467   9.496  13.047  1.00  0.00     0.051 C 
ATOM    122  C   UNL     1      26.287   8.419  12.348  1.00  0.00     0.051 C 
BRANCH 117 123
ATOM    123  S   UNL     1      30.455   7.962  13.843  1.00  0.00     0.270 S 
ATOM    124  O   UNL     1      31.135   8.507  12.641  1.00  0.00    -0.199 OA
ATOM    125  O   UNL     1      30.741   6.472  13.913  1.00  0.00    -0.199 OA
BRANCH 123 126
ATOM    126  O   UNL     1      31.040   8.640  15.251  1.00  0.00    -0.285 OA
ATOM    127  H   UNL     1      32.017   8.661  15.315  1.00  0.00     0.234 HD
ENDBRANCH 123 126
ENDBRANCH 117 123
BRANCH 118 128
ATOM    128  S   UNL     1      25.955   5.780  12.271  1.00  0.00     0.270 S 
ATOM    129  O   UNL     1      25.936   6.000  10.792  1.00  0.00    -0.199 OA
ATOM    130  O   UNL     1      26.765   4.534  12.597  1.00  0.00    -0.199 OA
BRANCH 128 131
ATOM    131  O   UNL     1      24.392   5.500  12.784  1.00  0.00    -0.285 OA
ATOM    132  H   UNL     1      23.805   5.152  12.095  1.00  0.00     0.234 HD
ENDBRANCH 128 131
ENDBRANCH 118 128
BRANCH 119 133
ATOM    133  S   UNL     1      26.551  11.081  12.207  1.00  0.00     0.270 S 
ATOM    134  O   UNL     1      27.827  11.682  11.693  1.00  0.00    -0.199 OA
ATOM    135  O   UNL     1      25.553  10.844  11.110  1.00  0.00    -0.199 OA
BRANCH 133 136
ATOM    136  O   UNL     1      25.948  12.155  13.366  1.00  0.00    -0.285 OA
ATOM    137  H   UNL     1      26.672  12.602  13.875  1.00  0.00     0.234 HD
ENDBRANCH 133 136
ENDBRANCH 119 133
ENDBRANCH  62 113
ENDBRANCH  61  62
ENDBRANCH  60  61
ENDBRANCH  59  60
ENDBRANCH  58  59
ENDBRANCH  57  58
ENDBRANCH  56  57
ENDBRANCH  55  56
ENDBRANCH  54  55
ENDBRANCH   1  54
TORSDOF 45
ENDMDL
MODEL 7
REMARK VINA RESULT:   -10.614      1.310      3.789
REMARK INTER + INTRA:         -45.979
REMARK INTER:                 -36.064
REMARK INTRA:                  -9.915
REMARK UNBOUND:               -10.237
REMARK SMILES Cc1cc(OCC(=O)N[C@H](CNC(=O)c2cccc(COc3ccccc3C(N)=O)c2)C(=O)NCCCCCCCCCCCC([C@]23C[C@]4(S(=O)(=O)O)C[C@](S(=O)(=O)O)(C2)C[C@](S(=O)(=O)O)(C3)C4)([C@]23C[C@]4(S(=O)(=O)O)C[C@](S(=O)(=O)O)(C2)C[C@](S(=O)(=O)O)(C3)C4)[C@]23C[C@]4(S(=O)(=O)O)C[C@](S(=O)(=O)O)(C2)C[C@](S(=O)(=O)O)(C3)C4)c2c3c(c(=O)oc2c1)CCC3
REMARK SMILES IDX 37 1 36 2 35 3 34 4 32 5 33 6 10 8 11 9 12 10 14 11 13 12
REMARK SMILES IDX 15 14 16 15 31 16 17 17 19 18 18 19 20 20 21 21 22 22 27 23
REMARK SMILES IDX 23 24 26 25 24 26 25 27 28 28 29 29 30 30 9 33 7 34 8 36
REMARK SMILES IDX 6 37 5 38 4 39 3 40 113 41 2 42 119 43 114 44 1 45 120 46
REMARK SMILES IDX 118 47 115 48 123 49 116 50 121 51 122 52 117 53 38 54 39 55
REMARK SMILES IDX 40 56 41 57 42 58 43 59 44 60 45 61 46 62 69 63 82 64 89 65
REMARK SMILES IDX 70 66 77 67 84 68 71 69 83 70 76 71 90 72 78 73 79 74 80 75
REMARK SMILES IDX 81 76 85 78 86 79 87 80 88 81 72 83 73 84 74 85 75 86 47 88
REMARK SMILES IDX 48 89 60 90 67 91 49 92 55 93 62 94 54 95 68 96 61 97 50 98
REMARK SMILES IDX 51 99 52 100 53 101 56 103 57 104 58 105 59 106 63 108
REMARK SMILES IDX 64 109 65 110 66 111 91 113 104 114 111 115 92 116 99 117
REMARK SMILES IDX 106 118 93 119 105 120 98 121 112 122 100 123 101 124
REMARK SMILES IDX 102 125 103 126 107 128 108 129 109 130 110 131 94 133
REMARK SMILES IDX 95 134 96 135 97 136
REMARK H PARENT 34 7 12 13 29 31 29 32 9 35 81 77 88 82 75 87 53 102 59 107
REMARK H PARENT 66 112 103 127 110 132 97 137
REMARK Flexibility Score: inf
ROOT
ATOM      1  C   UNL     1      22.672   0.074  12.876  1.00  0.00     0.002 C 
ENDROOT
BRANCH   1   2
ATOM      2  C   UNL     1      22.509  -1.380  13.033  1.00  0.00     0.021 C 
BRANCH   2   3
ATOM      3  C   UNL     1      21.612  -1.977  14.030  1.00  0.00     0.116 C 
BRANCH   3   4
ATOM      4  N   UNL     1      20.296  -1.458  14.186  1.00  0.00    -0.354 N 
ATOM      5  C   UNL     1      19.219  -2.026  14.863  1.00  0.00     0.244 C 
ATOM      6  O   UNL     1      19.290  -3.141  15.411  1.00  0.00    -0.273 OA
ATOM      7  H   UNL     1      20.086  -0.501  13.729  1.00  0.00     0.163 HD
BRANCH   5   8
ATOM      8  C   UNL     1      17.884  -1.345  14.987  1.00  0.00     0.190 C 
BRANCH   8   9
ATOM      9  C   UNL     1      16.724  -2.165  14.648  1.00  0.00     0.151 C 
BRANCH   9  10
ATOM     10  N   UNL     1      16.923  -3.412  13.989  1.00  0.00    -0.349 N 
ATOM     11  O   UNL     1      14.732  -3.920  13.426  1.00  0.00    -0.269 OA
ATOM     12  C   UNL     1      15.962  -4.242  13.407  1.00  0.00     0.251 C 
ATOM     13  H   UNL     1      17.947  -3.779  13.927  1.00  0.00     0.163 HD
BRANCH  12  14
ATOM     14  C   UNL     1      16.279  -5.488  12.756  1.00  0.00     0.040 A 
ATOM     15  C   UNL     1      17.304  -6.293  13.229  1.00  0.00     0.014 A 
ATOM     16  C   UNL     1      15.572  -5.954  11.683  1.00  0.00     0.021 A 
ATOM     17  C   UNL     1      17.571  -7.495  12.628  1.00  0.00     0.001 A 
ATOM     18  C   UNL     1      15.827  -7.177  11.057  1.00  0.00    -0.010 A 
ATOM     19  C   UNL     1      16.850  -7.956  11.548  1.00  0.00     0.007 A 
BRANCH  18  20
ATOM     20  C   UNL     1      15.057  -7.662   9.900  1.00  0.00     0.265 C 
BRANCH  20  21
ATOM     21  O   UNL     1      15.078  -9.038   9.731  1.00  0.00    -0.488 OA
BRANCH  21  22
ATOM     22  C   UNL     1      14.744  -9.682   8.575  1.00  0.00     0.132 A 
ATOM     23  C   UNL     1      15.751  -9.760   7.598  1.00  0.00     0.081 A 
ATOM     24  C   UNL     1      13.514 -10.233   8.331  1.00  0.00     0.047 A 
ATOM     25  C   UNL     1      15.463 -10.399   6.411  1.00  0.00     0.018 A 
ATOM     26  C   UNL     1      13.283 -10.863   7.118  1.00  0.00     0.004 A 
ATOM     27  C   UNL     1      14.240 -10.950   6.163  1.00  0.00     0.001 A 
BRANCH  23  28
ATOM     28  C   UNL     1      17.046  -9.176   7.860  1.00  0.00     0.252 C 
ATOM     29  N   UNL     1      17.935  -9.844   8.743  1.00  0.00    -0.365 N 
ATOM     30  O   UNL     1      17.372  -8.102   7.315  1.00  0.00    -0.269 OA
ATOM     31  H   UNL     1      18.076  -9.547   9.728  1.00  0.00     0.159 HD
ATOM     32  H   UNL     1      18.462 -10.677   8.356  1.00  0.00     0.159 HD
ENDBRANCH  23  28
ENDBRANCH  21  22
ENDBRANCH  20  21
ENDBRANCH  18  20
ENDBRANCH  12  14
ENDBRANCH   9  10
ENDBRANCH   8   9
BRANCH   8  33
ATOM     33  N   UNL     1      17.795  -0.664  16.236  1.00  0.00    -0.340 N 
ATOM     34  C   UNL     1      18.282   0.650  16.402  1.00  0.00     0.258 C 
ATOM     35  H   UNL     1      17.381  -1.170  17.077  1.00  0.00     0.164 HD
ATOM     36  O   UNL     1      18.818   1.248  15.414  1.00  0.00    -0.271 OA
BRANCH  34  37
ATOM     37  C   UNL     1      18.179   1.359  17.708  1.00  0.00     0.329 C 
BRANCH  37  38
ATOM     38  O   UNL     1      19.182   0.957  18.589  1.00  0.00    -0.483 OA
BRANCH  38  39
ATOM     39  C   UNL     1      19.818   1.886  19.390  1.00  0.00     0.131 A 
ATOM     40  C   UNL     1      19.153   2.726  20.260  1.00  0.00     0.050 A 
ATOM     41  C   UNL     1      21.212   1.927  19.268  1.00  0.00     0.063 A 
ATOM     42  C   UNL     1      19.863   3.629  21.026  1.00  0.00    -0.044 A 
ATOM     43  C   UNL     1      21.905   2.827  20.034  1.00  0.00     0.142 A 
ATOM     44  C   UNL     1      21.851   1.062  18.382  1.00  0.00    -0.023 A 
ATOM     45  C   UNL     1      19.139   4.547  21.973  1.00  0.00     0.044 C 
ATOM     46  C   UNL     1      21.232   3.668  20.903  1.00  0.00     0.051 A 
ATOM     47  O   UNL     1      23.230   2.879  19.931  1.00  0.00    -0.422 OA
ATOM     48  C   UNL     1      23.229   1.160  18.314  1.00  0.00     0.042 A 
ATOM     49  C   UNL     1      21.381   0.018  17.459  1.00  0.00     0.037 C 
ATOM     50  C   UNL     1      23.859   2.084  19.111  1.00  0.00     0.339 A 
ATOM     51  C   UNL     1      23.778   0.176  17.332  1.00  0.00     0.044 C 
ATOM     52  C   UNL     1      22.647  -0.820  17.235  1.00  0.00     0.010 C 
ATOM     53  O   UNL     1      25.117   2.161  19.039  1.00  0.00    -0.246 OA
ENDBRANCH  38  39
ENDBRANCH  37  38
ENDBRANCH  34  37
ENDBRANCH   8  33
ENDBRANCH   5   8
ENDBRANCH   3   4
ENDBRANCH   2   3
ENDBRANCH   1   2
BRANCH   1  54
ATOM     54  C   UNL     1      23.426   0.773  14.009  1.00  0.00     0.000 C 
BRANCH  54  55
ATOM     55  C   UNL     1      22.769   2.070  14.341  1.00  0.00     0.000 C 
BRANCH  55  56
ATOM     56  C   UNL     1      23.682   3.017  15.057  1.00  0.00     0.000 C 
BRANCH  56  57
ATOM     57  C   UNL     1      25.102   2.512  14.918  1.00  0.00     0.000 C 
BRANCH  57  58
ATOM     58  C   UNL     1      25.973   3.285  15.887  1.00  0.00     0.000 C 
BRANCH  58  59
ATOM     59  C   UNL     1      25.207   4.478  16.467  1.00  0.00     0.000 C 
BRANCH  59  60
ATOM     60  C   UNL     1      26.033   5.307  17.342  1.00  0.00     0.001 C 
BRANCH  60  61
ATOM     61  C   UNL     1      26.454   6.593  17.478  1.00  0.00     0.009 C 
BRANCH  61  62
ATOM     62  C   UNL     1      26.939   7.903  16.956  1.00  0.00    -0.012 C 
BRANCH  62  63
ATOM     63  C   UNL     1      26.451   8.930  17.986  1.00  0.00    -0.018 C 
ATOM     64  C   UNL     1      27.182   8.811  19.313  1.00  0.00     0.033 C 
ATOM     65  C   UNL     1      26.744  10.345  17.583  1.00  0.00     0.033 C 
ATOM     66  C   UNL     1      25.089   8.875  18.468  1.00  0.00     0.033 C 
ATOM     67  C   UNL     1      26.908   9.928  20.280  1.00  0.00     0.101 C 
ATOM     68  C   UNL     1      26.281  11.408  18.571  1.00  0.00     0.101 C 
ATOM     69  C   UNL     1      24.726  10.005  19.464  1.00  0.00     0.101 C 
ATOM     70  C   UNL     1      27.167  11.291  19.789  1.00  0.00     0.051 C 
ATOM     71  C   UNL     1      25.475   9.866  20.761  1.00  0.00     0.051 C 
ATOM     72  C   UNL     1      24.835  11.359  18.881  1.00  0.00     0.051 C 
BRANCH  67  73
ATOM     73  S   UNL     1      27.894   9.670  21.756  1.00  0.00     0.270 S 
ATOM     74  O   UNL     1      28.631  10.900  22.129  1.00  0.00    -0.199 OA
ATOM     75  O   UNL     1      26.892   9.399  22.866  1.00  0.00    -0.199 OA
BRANCH  73  76
ATOM     76  O   UNL     1      28.846   8.310  21.633  1.00  0.00    -0.285 OA
ATOM     77  H   UNL     1      28.220   7.524  21.668  1.00  0.00     0.234 HD
ENDBRANCH  73  76
ENDBRANCH  67  73
BRANCH  68  78
ATOM     78  S   UNL     1      26.638  13.008  17.857  1.00  0.00     0.270 S 
ATOM     79  O   UNL     1      26.320  14.092  18.818  1.00  0.00    -0.199 OA
ATOM     80  O   UNL     1      25.757  13.120  16.628  1.00  0.00    -0.199 OA
BRANCH  78  81
ATOM     81  O   UNL     1      28.244  13.079  17.336  1.00  0.00    -0.285 OA
ATOM     82  H   UNL     1      28.268  13.238  16.353  1.00  0.00     0.234 HD
ENDBRANCH  78  81
ENDBRANCH  68  78
BRANCH  69  83
ATOM     83  S   UNL     1      23.010   9.787  19.927  1.00  0.00     0.270 S 
ATOM     84  O   UNL     1      22.167  10.898  19.441  1.00  0.00    -0.199 OA
ATOM     85  O   UNL     1      22.926   9.814  21.447  1.00  0.00    -0.199 OA
BRANCH  83  86
ATOM     86  O   UNL     1      22.409   8.341  19.383  1.00  0.00    -0.285 OA
ATOM     87  H   UNL     1      22.838   7.602  19.871  1.00  0.00     0.234 HD
ENDBRANCH  83  86
ENDBRANCH  69  83
ENDBRANCH  62  63
BRANCH  62  88
ATOM     88  C   UNL     1      28.446   7.859  16.796  1.00  0.00    -0.018 C 
ATOM     89  C   UNL     1      29.228   8.277  18.015  1.00  0.00     0.033 C 
ATOM     90  C   UNL     1      29.091   8.410  15.616  1.00  0.00     0.033 C 
ATOM     91  C   UNL     1      28.948   6.410  16.881  1.00  0.00     0.033 C 
ATOM     92  C   UNL     1      30.739   8.019  17.892  1.00  0.00     0.101 C 
ATOM     93  C   UNL     1      30.631   8.351  15.608  1.00  0.00     0.101 C 
ATOM     94  C   UNL     1      30.360   6.203  16.528  1.00  0.00     0.101 C 
ATOM     95  C   UNL     1      31.277   8.917  16.798  1.00  0.00     0.051 C 
ATOM     96  C   UNL     1      31.183   6.640  17.757  1.00  0.00     0.051 C 
ATOM     97  C   UNL     1      30.978   6.872  15.391  1.00  0.00     0.051 C 
BRANCH  92  98
ATOM     98  S   UNL     1      31.455   8.623  19.425  1.00  0.00     0.270 S 
ATOM     99  O   UNL     1      31.280   7.604  20.522  1.00  0.00    -0.199 OA
ATOM    100  O   UNL     1      30.832   9.894  19.872  1.00  0.00    -0.199 OA
BRANCH  98 101
ATOM    101  O   UNL     1      33.103   8.892  19.220  1.00  0.00    -0.285 OA
ATOM    102  H   UNL     1      33.307   9.852  19.088  1.00  0.00     0.234 HD
ENDBRANCH  98 101
ENDBRANCH  92  98
BRANCH  93 103
ATOM    103  S   UNL     1      31.217   9.206  14.161  1.00  0.00     0.270 S 
ATOM    104  O   UNL     1      31.859  10.476  14.643  1.00  0.00    -0.199 OA
ATOM    105  O   UNL     1      32.277   8.417  13.451  1.00  0.00    -0.199 OA
BRANCH 103 106
ATOM    106  O   UNL     1      29.938   9.610  13.185  1.00  0.00    -0.285 OA
ATOM    107  H   UNL     1      29.355   8.851  12.975  1.00  0.00     0.234 HD
ENDBRANCH 103 106
ENDBRANCH  93 103
BRANCH  94 108
ATOM    108  S   UNL     1      30.684   4.446  16.385  1.00  0.00     0.270 S 
ATOM    109  O   UNL     1      31.179   3.996  17.749  1.00  0.00    -0.199 OA
ATOM    110  O   UNL     1      29.440   3.675  16.095  1.00  0.00    -0.199 OA
BRANCH 108 111
ATOM    111  O   UNL     1      31.915   4.162  15.304  1.00  0.00    -0.285 OA
ATOM    112  H   UNL     1      32.624   4.834  15.438  1.00  0.00     0.234 HD
ENDBRANCH 108 111
ENDBRANCH  94 108
ENDBRANCH  62  88
BRANCH  62 113
ATOM    113  C   UNL     1      26.218   8.155  15.617  1.00  0.00    -0.018 C 
ATOM    114  C   UNL     1      26.248   7.042  14.637  1.00  0.00     0.033 C 
ATOM    115  C   UNL     1      24.689   8.022  15.824  1.00  0.00     0.033 C 
ATOM    116  C   UNL     1      26.529   9.356  14.860  1.00  0.00     0.033 C 
ATOM    117  C   UNL     1      25.404   7.289  13.366  1.00  0.00     0.101 C 
ATOM    118  C   UNL     1      23.892   8.501  14.672  1.00  0.00     0.101 C 
ATOM    119  C   UNL     1      25.727   9.535  13.546  1.00  0.00     0.101 C 
ATOM    120  C   UNL     1      23.967   7.387  13.601  1.00  0.00     0.051 C 
ATOM    121  C   UNL     1      25.969   8.432  12.599  1.00  0.00     0.051 C 
ATOM    122  C   UNL     1      24.300   9.733  13.986  1.00  0.00     0.051 C 
BRANCH 117 123
ATOM    123  S   UNL     1      25.663   5.829  12.336  1.00  0.00     0.270 S 
ATOM    124  O   UNL     1      25.873   6.224  10.921  1.00  0.00    -0.199 OA
ATOM    125  O   UNL     1      24.407   4.979  12.408  1.00  0.00    -0.199 OA
BRANCH 123 126
ATOM    126  O   UNL     1      26.919   4.896  12.917  1.00  0.00    -0.285 OA
ATOM    127  H   UNL     1      27.656   5.408  13.309  1.00  0.00     0.234 HD
ENDBRANCH 123 126
ENDBRANCH 117 123
BRANCH 118 128
ATOM    128  S   UNL     1      22.169   8.593  15.100  1.00  0.00     0.270 S 
ATOM    129  O   UNL     1      21.382   7.620  14.281  1.00  0.00    -0.199 OA
ATOM    130  O   UNL     1      21.968   8.301  16.580  1.00  0.00    -0.199 OA
BRANCH 128 131
ATOM    131  O   UNL     1      21.576  10.126  14.816  1.00  0.00    -0.285 OA
ATOM    132  H   UNL     1      22.063  10.831  15.271  1.00  0.00     0.234 HD
ENDBRANCH 128 131
ENDBRANCH 118 128
BRANCH 119 133
ATOM    133  S   UNL     1      26.301  11.031  12.767  1.00  0.00     0.270 S 
ATOM    134  O   UNL     1      26.900  11.878  13.852  1.00  0.00    -0.199 OA
ATOM    135  O   UNL     1      27.282  10.739  11.669  1.00  0.00    -0.199 OA
BRANCH 133 136
ATOM    136  O   UNL     1      24.958  11.877  12.184  1.00  0.00    -0.285 OA
ATOM    137  H   UNL     1      25.135  12.302  11.305  1.00  0.00     0.234 HD
ENDBRANCH 133 136
ENDBRANCH 119 133
ENDBRANCH  62 113
ENDBRANCH  61  62
ENDBRANCH  60  61
ENDBRANCH  59  60
ENDBRANCH  58  59
ENDBRANCH  57  58
ENDBRANCH  56  57
ENDBRANCH  55  56
ENDBRANCH  54  55
ENDBRANCH   1  54
TORSDOF 45
ENDMDL
MODEL 8
REMARK VINA RESULT:   -10.577      1.367      4.266
REMARK INTER + INTRA:         -45.856
REMARK INTER:                 -36.073
REMARK INTRA:                  -9.783
REMARK UNBOUND:               -10.237
REMARK SMILES Cc1cc(OCC(=O)N[C@H](CNC(=O)c2cccc(COc3ccccc3C(N)=O)c2)C(=O)NCCCCCCCCCCCC([C@]23C[C@]4(S(=O)(=O)O)C[C@](S(=O)(=O)O)(C2)C[C@](S(=O)(=O)O)(C3)C4)([C@]23C[C@]4(S(=O)(=O)O)C[C@](S(=O)(=O)O)(C2)C[C@](S(=O)(=O)O)(C3)C4)[C@]23C[C@]4(S(=O)(=O)O)C[C@](S(=O)(=O)O)(C2)C[C@](S(=O)(=O)O)(C3)C4)c2c3c(c(=O)oc2c1)CCC3
REMARK SMILES IDX 37 1 36 2 35 3 34 4 32 5 33 6 10 8 11 9 12 10 14 11 13 12
REMARK SMILES IDX 15 14 16 15 31 16 17 17 19 18 18 19 20 20 21 21 22 22 27 23
REMARK SMILES IDX 23 24 26 25 24 26 25 27 28 28 29 29 30 30 9 33 7 34 8 36
REMARK SMILES IDX 6 37 5 38 4 39 3 40 113 41 2 42 119 43 114 44 1 45 120 46
REMARK SMILES IDX 118 47 115 48 123 49 116 50 121 51 122 52 117 53 38 54 39 55
REMARK SMILES IDX 40 56 41 57 42 58 43 59 44 60 45 61 46 62 69 63 82 64 89 65
REMARK SMILES IDX 70 66 77 67 84 68 71 69 83 70 76 71 90 72 78 73 79 74 80 75
REMARK SMILES IDX 81 76 85 78 86 79 87 80 88 81 72 83 73 84 74 85 75 86 47 88
REMARK SMILES IDX 48 89 60 90 67 91 49 92 55 93 62 94 54 95 68 96 61 97 50 98
REMARK SMILES IDX 51 99 52 100 53 101 56 103 57 104 58 105 59 106 63 108
REMARK SMILES IDX 64 109 65 110 66 111 91 113 104 114 111 115 92 116 99 117
REMARK SMILES IDX 106 118 93 119 105 120 98 121 112 122 100 123 101 124
REMARK SMILES IDX 102 125 103 126 107 128 108 129 109 130 110 131 94 133
REMARK SMILES IDX 95 134 96 135 97 136
REMARK H PARENT 34 7 12 13 29 31 29 32 9 35 81 77 88 82 75 87 53 102 59 107
REMARK H PARENT 66 112 103 127 110 132 97 137
REMARK Flexibility Score: inf
ROOT
ATOM      1  C   UNL     1      22.720  -0.038  12.744  1.00  0.00     0.002 C 
ENDROOT
BRANCH   1   2
ATOM      2  C   UNL     1      22.466  -1.475  12.929  1.00  0.00     0.021 C 
BRANCH   2   3
ATOM      3  C   UNL     1      21.680  -2.005  14.051  1.00  0.00     0.116 C 
BRANCH   3   4
ATOM      4  N   UNL     1      20.347  -1.549  14.248  1.00  0.00    -0.354 N 
ATOM      5  C   UNL     1      19.320  -2.167  14.958  1.00  0.00     0.244 C 
ATOM      6  O   UNL     1      19.461  -3.277  15.503  1.00  0.00    -0.273 OA
ATOM      7  H   UNL     1      20.078  -0.604  13.798  1.00  0.00     0.163 HD
BRANCH   5   8
ATOM      8  C   UNL     1      17.959  -1.550  15.125  1.00  0.00     0.190 C 
BRANCH   8   9
ATOM      9  C   UNL     1      16.829  -2.446  14.898  1.00  0.00     0.151 C 
BRANCH   9  10
ATOM     10  N   UNL     1      17.031  -3.650  14.164  1.00  0.00    -0.349 N 
ATOM     11  O   UNL     1      14.854  -4.083  13.497  1.00  0.00    -0.269 OA
ATOM     12  C   UNL     1      16.079  -4.424  13.496  1.00  0.00     0.251 C 
ATOM     13  H   UNL     1      18.052  -4.029  14.112  1.00  0.00     0.163 HD
BRANCH  12  14
ATOM     14  C   UNL     1      16.401  -5.629  12.776  1.00  0.00     0.040 A 
ATOM     15  C   UNL     1      17.471  -6.421  13.161  1.00  0.00     0.014 A 
ATOM     16  C   UNL     1      15.655  -6.070  11.717  1.00  0.00     0.021 A 
ATOM     17  C   UNL     1      17.743  -7.587  12.494  1.00  0.00     0.001 A 
ATOM     18  C   UNL     1      15.915  -7.255  11.025  1.00  0.00    -0.010 A 
ATOM     19  C   UNL     1      16.984  -8.022  11.430  1.00  0.00     0.007 A 
BRANCH  18  20
ATOM     20  C   UNL     1      15.103  -7.713   9.886  1.00  0.00     0.265 C 
BRANCH  20  21
ATOM     21  O   UNL     1      15.064  -9.090   9.723  1.00  0.00    -0.488 OA
BRANCH  21  22
ATOM     22  C   UNL     1      14.702  -9.724   8.571  1.00  0.00     0.132 A 
ATOM     23  C   UNL     1      15.678  -9.781   7.563  1.00  0.00     0.081 A 
ATOM     24  C   UNL     1      13.470 -10.285   8.358  1.00  0.00     0.047 A 
ATOM     25  C   UNL     1      15.362 -10.409   6.378  1.00  0.00     0.018 A 
ATOM     26  C   UNL     1      13.208 -10.905   7.145  1.00  0.00     0.004 A 
ATOM     27  C   UNL     1      14.137 -10.971   6.161  1.00  0.00     0.001 A 
BRANCH  23  28
ATOM     28  C   UNL     1      16.975  -9.186   7.793  1.00  0.00     0.252 C 
ATOM     29  N   UNL     1      17.213  -7.861   7.342  1.00  0.00    -0.365 N 
ATOM     30  O   UNL     1      17.867  -9.832   8.379  1.00  0.00    -0.269 OA
ATOM     31  H   UNL     1      17.743  -7.649   6.475  1.00  0.00     0.159 HD
ATOM     32  H   UNL     1      16.820  -7.073   7.932  1.00  0.00     0.159 HD
ENDBRANCH  23  28
ENDBRANCH  21  22
ENDBRANCH  20  21
ENDBRANCH  18  20
ENDBRANCH  12  14
ENDBRANCH   9  10
ENDBRANCH   8   9
BRANCH   8  33
ATOM     33  N   UNL     1      17.903  -0.806  16.339  1.00  0.00    -0.340 N 
ATOM     34  C   UNL     1      18.278   0.553  16.395  1.00  0.00     0.258 C 
ATOM     35  H   UNL     1      17.602  -1.295  17.236  1.00  0.00     0.164 HD
ATOM     36  O   UNL     1      18.681   1.136  15.338  1.00  0.00    -0.271 OA
BRANCH  34  37
ATOM     37  C   UNL     1      18.210   1.327  17.667  1.00  0.00     0.329 C 
BRANCH  37  38
ATOM     38  O   UNL     1      19.200   0.927  18.564  1.00  0.00    -0.483 OA
BRANCH  38  39
ATOM     39  C   UNL     1      19.833   1.859  19.363  1.00  0.00     0.131 A 
ATOM     40  C   UNL     1      19.163   2.709  20.220  1.00  0.00     0.050 A 
ATOM     41  C   UNL     1      21.228   1.893  19.254  1.00  0.00     0.063 A 
ATOM     42  C   UNL     1      19.871   3.615  20.986  1.00  0.00    -0.044 A 
ATOM     43  C   UNL     1      21.918   2.795  20.019  1.00  0.00     0.142 A 
ATOM     44  C   UNL     1      21.871   1.017  18.380  1.00  0.00    -0.023 A 
ATOM     45  C   UNL     1      19.143   4.543  21.918  1.00  0.00     0.044 C 
ATOM     46  C   UNL     1      21.242   3.646  20.875  1.00  0.00     0.051 A 
ATOM     47  O   UNL     1      23.244   2.840  19.928  1.00  0.00    -0.422 OA
ATOM     48  C   UNL     1      23.250   1.108  18.325  1.00  0.00     0.042 A 
ATOM     49  C   UNL     1      21.404  -0.032  17.461  1.00  0.00     0.037 C 
ATOM     50  C   UNL     1      23.877   2.035  19.120  1.00  0.00     0.339 A 
ATOM     51  C   UNL     1      23.803   0.114  17.356  1.00  0.00     0.044 C 
ATOM     52  C   UNL     1      22.669  -0.878  17.256  1.00  0.00     0.010 C 
ATOM     53  O   UNL     1      25.136   2.106  19.059  1.00  0.00    -0.246 OA
ENDBRANCH  38  39
ENDBRANCH  37  38
ENDBRANCH  34  37
ENDBRANCH   8  33
ENDBRANCH   5   8
ENDBRANCH   3   4
ENDBRANCH   2   3
ENDBRANCH   1   2
BRANCH   1  54
ATOM     54  C   UNL     1      23.399   0.663  13.922  1.00  0.00     0.000 C 
BRANCH  54  55
ATOM     55  C   UNL     1      22.669   1.917  14.266  1.00  0.00     0.000 C 
BRANCH  55  56
ATOM     56  C   UNL     1      23.499   2.871  15.069  1.00  0.00     0.000 C 
BRANCH  56  57
ATOM     57  C   UNL     1      24.926   2.368  15.087  1.00  0.00     0.000 C 
BRANCH  57  58
ATOM     58  C   UNL     1      25.753   3.329  15.917  1.00  0.00     0.000 C 
BRANCH  58  59
ATOM     59  C   UNL     1      24.954   4.598  16.226  1.00  0.00     0.000 C 
BRANCH  59  60
ATOM     60  C   UNL     1      25.523   5.367  17.332  1.00  0.00     0.001 C 
BRANCH  60  61
ATOM     61  C   UNL     1      26.025   6.602  17.602  1.00  0.00     0.009 C 
BRANCH  61  62
ATOM     62  C   UNL     1      26.572   7.935  17.220  1.00  0.00    -0.012 C 
BRANCH  62  63
ATOM     63  C   UNL     1      25.899   8.917  18.188  1.00  0.00    -0.018 C 
ATOM     64  C   UNL     1      25.890   8.405  19.618  1.00  0.00     0.033 C 
ATOM     65  C   UNL     1      26.643  10.214  18.315  1.00  0.00     0.033 C 
ATOM     66  C   UNL     1      24.493   9.221  18.043  1.00  0.00     0.033 C 
ATOM     67  C   UNL     1      25.449   9.414  20.641  1.00  0.00     0.101 C 
ATOM     68  C   UNL     1      26.019  11.227  19.266  1.00  0.00     0.101 C 
ATOM     69  C   UNL     1      23.965  10.265  19.058  1.00  0.00     0.101 C 
ATOM     70  C   UNL     1      26.193  10.683  20.664  1.00  0.00     0.051 C 
ATOM     71  C   UNL     1      23.980   9.733  20.465  1.00  0.00     0.051 C 
ATOM     72  C   UNL     1      24.621  11.585  18.938  1.00  0.00     0.051 C 
BRANCH  67  73
ATOM     73  S   UNL     1      25.560   8.672  22.270  1.00  0.00     0.270 S 
ATOM     74  O   UNL     1      24.389   9.033  23.104  1.00  0.00    -0.199 OA
ATOM     75  O   UNL     1      25.491   7.172  22.035  1.00  0.00    -0.199 OA
BRANCH  73  76
ATOM     76  O   UNL     1      27.032   8.973  22.988  1.00  0.00    -0.285 OA
ATOM     77  H   UNL     1      26.844   9.113  23.966  1.00  0.00     0.234 HD
ENDBRANCH  73  76
ENDBRANCH  67  73
BRANCH  68  78
ATOM     78  S   UNL     1      27.001  12.719  19.194  1.00  0.00     0.270 S 
ATOM     79  O   UNL     1      26.562  13.685  20.231  1.00  0.00    -0.199 OA
ATOM     80  O   UNL     1      26.777  13.297  17.810  1.00  0.00    -0.199 OA
BRANCH  78  81
ATOM     81  O   UNL     1      28.645  12.352  19.329  1.00  0.00    -0.285 OA
ATOM     82  H   UNL     1      28.963  11.936  18.483  1.00  0.00     0.234 HD
ENDBRANCH  78  81
ENDBRANCH  68  78
BRANCH  69  83
ATOM     83  S   UNL     1      22.228  10.526  18.711  1.00  0.00     0.270 S 
ATOM     84  O   UNL     1      21.948  11.929  18.344  1.00  0.00    -0.199 OA
ATOM     85  O   UNL     1      21.446  10.251  19.989  1.00  0.00    -0.199 OA
BRANCH  83  86
ATOM     86  O   UNL     1      21.682   9.511  17.520  1.00  0.00    -0.285 OA
ATOM     87  H   UNL     1      22.413   8.917  17.235  1.00  0.00     0.234 HD
ENDBRANCH  83  86
ENDBRANCH  69  83
ENDBRANCH  62  63
BRANCH  62  88
ATOM     88  C   UNL     1      28.085   7.911  17.320  1.00  0.00    -0.018 C 
ATOM     89  C   UNL     1      28.630   7.875  18.725  1.00  0.00     0.033 C 
ATOM     90  C   UNL     1      28.903   8.812  16.526  1.00  0.00     0.033 C 
ATOM     91  C   UNL     1      28.616   6.507  16.999  1.00  0.00     0.033 C 
ATOM     92  C   UNL     1      30.147   7.636  18.788  1.00  0.00     0.101 C 
ATOM     93  C   UNL     1      30.422   8.721  16.766  1.00  0.00     0.101 C 
ATOM     94  C   UNL     1      30.075   6.397  16.849  1.00  0.00     0.101 C 
ATOM     95  C   UNL     1      30.832   8.838  18.170  1.00  0.00     0.051 C 
ATOM     96  C   UNL     1      30.658   6.373  18.276  1.00  0.00     0.051 C 
ATOM     97  C   UNL     1      30.854   7.395  16.129  1.00  0.00     0.051 C 
BRANCH  92  98
ATOM     98  S   UNL     1      30.566   7.670  20.534  1.00  0.00     0.270 S 
ATOM     99  O   UNL     1      31.919   8.303  20.736  1.00  0.00    -0.199 OA
ATOM    100  O   UNL     1      30.600   6.310  21.128  1.00  0.00    -0.199 OA
BRANCH  98 101
ATOM    101  O   UNL     1      29.432   8.581  21.378  1.00  0.00    -0.285 OA
ATOM    102  H   UNL     1      28.781   8.009  21.859  1.00  0.00     0.234 HD
ENDBRANCH  98 101
ENDBRANCH  92  98
BRANCH  93 103
ATOM    103  S   UNL     1      31.217  10.001  15.817  1.00  0.00     0.270 S 
ATOM    104  O   UNL     1      31.658   9.368  14.528  1.00  0.00    -0.199 OA
ATOM    105  O   UNL     1      30.256  11.098  15.466  1.00  0.00    -0.199 OA
BRANCH 103 106
ATOM    106  O   UNL     1      32.566  10.543  16.617  1.00  0.00    -0.285 OA
ATOM    107  H   UNL     1      32.764  10.037  17.432  1.00  0.00     0.234 HD
ENDBRANCH 103 106
ENDBRANCH  93 103
BRANCH  94 108
ATOM    108  S   UNL     1      30.482   4.783  16.181  1.00  0.00     0.270 S 
ATOM    109  O   UNL     1      31.554   5.021  15.131  1.00  0.00    -0.199 OA
ATOM    110  O   UNL     1      31.075   3.889  17.218  1.00  0.00    -0.199 OA
BRANCH 108 111
ATOM    111  O   UNL     1      29.172   4.124  15.398  1.00  0.00    -0.285 OA
ATOM    112  H   UNL     1      28.897   4.725  14.666  1.00  0.00     0.234 HD
ENDBRANCH 108 111
ENDBRANCH  94 108
ENDBRANCH  62  88
BRANCH  62 113
ATOM    113  C   UNL     1      26.087   8.233  15.787  1.00  0.00    -0.018 C 
ATOM    114  C   UNL     1      26.897   9.202  15.009  1.00  0.00     0.033 C 
ATOM    115  C   UNL     1      26.477   7.057  14.858  1.00  0.00     0.033 C 
ATOM    116  C   UNL     1      24.701   8.615  15.574  1.00  0.00     0.033 C 
ATOM    117  C   UNL     1      26.450   9.370  13.539  1.00  0.00     0.101 C 
ATOM    118  C   UNL     1      25.833   7.116  13.526  1.00  0.00     0.101 C 
ATOM    119  C   UNL     1      24.303   8.859  14.097  1.00  0.00     0.101 C 
ATOM    120  C   UNL     1      26.613   8.177  12.715  1.00  0.00     0.051 C 
ATOM    121  C   UNL     1      25.082   9.953  13.491  1.00  0.00     0.051 C 
ATOM    122  C   UNL     1      24.422   7.512  13.434  1.00  0.00     0.051 C 
BRANCH 117 123
ATOM    123  S   UNL     1      27.547  10.628  12.853  1.00  0.00     0.270 S 
ATOM    124  O   UNL     1      27.067  11.062  11.517  1.00  0.00    -0.199 OA
ATOM    125  O   UNL     1      28.922  10.006  12.682  1.00  0.00    -0.199 OA
BRANCH 123 126
ATOM    126  O   UNL     1      27.719  11.915  13.902  1.00  0.00    -0.285 OA
ATOM    127  H   UNL     1      28.561  12.407  13.805  1.00  0.00     0.234 HD
ENDBRANCH 123 126
ENDBRANCH 117 123
BRANCH 118 128
ATOM    128  S   UNL     1      26.091   5.597  12.640  1.00  0.00     0.270 S 
ATOM    129  O   UNL     1      27.276   4.873  13.195  1.00  0.00    -0.199 OA
ATOM    130  O   UNL     1      24.858   4.710  12.727  1.00  0.00    -0.199 OA
BRANCH 128 131
ATOM    131  O   UNL     1      26.366   5.901  11.023  1.00  0.00    -0.285 OA
ATOM    132  H   UNL     1      27.257   6.231  10.828  1.00  0.00     0.234 HD
ENDBRANCH 128 131
ENDBRANCH 118 128
BRANCH 119 133
ATOM    133  S   UNL     1      22.593   9.359  14.077  1.00  0.00     0.270 S 
ATOM    134  O   UNL     1      21.808   8.235  14.689  1.00  0.00    -0.199 OA
ATOM    135  O   UNL     1      22.390  10.655  14.809  1.00  0.00    -0.199 OA
BRANCH 133 136
ATOM    136  O   UNL     1      22.090   9.476  12.467  1.00  0.00    -0.285 OA
ATOM    137  H   UNL     1      21.463  10.231  12.324  1.00  0.00     0.234 HD
ENDBRANCH 133 136
ENDBRANCH 119 133
ENDBRANCH  62 113
ENDBRANCH  61  62
ENDBRANCH  60  61
ENDBRANCH  59  60
ENDBRANCH  58  59
ENDBRANCH  57  58
ENDBRANCH  56  57
ENDBRANCH  55  56
ENDBRANCH  54  55
ENDBRANCH   1  54
TORSDOF 45
ENDMDL
MODEL 9
REMARK VINA RESULT:   -10.568      3.119      6.799
REMARK INTER + INTRA:         -45.825
REMARK INTER:                 -33.433
REMARK INTRA:                 -12.393
REMARK UNBOUND:               -10.237
REMARK SMILES Cc1cc(OCC(=O)N[C@H](CNC(=O)c2cccc(COc3ccccc3C(N)=O)c2)C(=O)NCCCCCCCCCCCC([C@]23C[C@]4(S(=O)(=O)O)C[C@](S(=O)(=O)O)(C2)C[C@](S(=O)(=O)O)(C3)C4)([C@]23C[C@]4(S(=O)(=O)O)C[C@](S(=O)(=O)O)(C2)C[C@](S(=O)(=O)O)(C3)C4)[C@]23C[C@]4(S(=O)(=O)O)C[C@](S(=O)(=O)O)(C2)C[C@](S(=O)(=O)O)(C3)C4)c2c3c(c(=O)oc2c1)CCC3
REMARK SMILES IDX 37 1 36 2 35 3 34 4 32 5 33 6 10 8 11 9 12 10 14 11 13 12
REMARK SMILES IDX 15 14 16 15 31 16 17 17 19 18 18 19 20 20 21 21 22 22 27 23
REMARK SMILES IDX 23 24 26 25 24 26 25 27 28 28 29 29 30 30 9 33 7 34 8 36
REMARK SMILES IDX 6 37 5 38 4 39 3 40 113 41 2 42 119 43 114 44 1 45 120 46
REMARK SMILES IDX 118 47 115 48 123 49 116 50 121 51 122 52 117 53 38 54 39 55
REMARK SMILES IDX 40 56 41 57 42 58 43 59 44 60 45 61 46 62 69 63 82 64 89 65
REMARK SMILES IDX 70 66 77 67 84 68 71 69 83 70 76 71 90 72 78 73 79 74 80 75
REMARK SMILES IDX 81 76 85 78 86 79 87 80 88 81 72 83 73 84 74 85 75 86 47 88
REMARK SMILES IDX 48 89 60 90 67 91 49 92 55 93 62 94 54 95 68 96 61 97 50 98
REMARK SMILES IDX 51 99 52 100 53 101 56 103 57 104 58 105 59 106 63 108
REMARK SMILES IDX 64 109 65 110 66 111 91 113 104 114 111 115 92 116 99 117
REMARK SMILES IDX 106 118 93 119 105 120 98 121 112 122 100 123 101 124
REMARK SMILES IDX 102 125 103 126 107 128 108 129 109 130 110 131 94 133
REMARK SMILES IDX 95 134 96 135 97 136
REMARK H PARENT 34 7 12 13 29 31 29 32 9 35 81 77 88 82 75 87 53 102 59 107
REMARK H PARENT 66 112 103 127 110 132 97 137
REMARK Flexibility Score: inf
ROOT
ATOM      1  C   UNL     1      28.203   5.976  16.640  1.00  0.00     0.002 C 
ENDROOT
BRANCH   1   2
ATOM      2  C   UNL     1      27.805   4.921  15.695  1.00  0.00     0.021 C 
BRANCH   2   3
ATOM      3  C   UNL     1      27.419   3.571  16.126  1.00  0.00     0.116 C 
BRANCH   3   4
ATOM      4  N   UNL     1      26.102   3.103  15.861  1.00  0.00    -0.354 N 
ATOM      5  C   UNL     1      25.701   2.119  14.960  1.00  0.00     0.244 C 
ATOM      6  O   UNL     1      26.505   1.529  14.216  1.00  0.00    -0.273 OA
ATOM      7  H   UNL     1      25.296   3.556  16.421  1.00  0.00     0.163 HD
BRANCH   5   8
ATOM      8  C   UNL     1      24.268   1.688  14.809  1.00  0.00     0.190 C 
BRANCH   8   9
ATOM      9  C   UNL     1      24.067   0.355  14.247  1.00  0.00     0.151 C 
BRANCH   9  10
ATOM     10  N   UNL     1      23.287  -0.595  14.968  1.00  0.00    -0.349 N 
ATOM     11  O   UNL     1      21.414  -0.688  13.606  1.00  0.00    -0.269 OA
ATOM     12  C   UNL     1      22.019  -1.087  14.651  1.00  0.00     0.251 C 
ATOM     13  H   UNL     1      23.720  -0.992  15.886  1.00  0.00     0.163 HD
BRANCH  12  14
ATOM     14  C   UNL     1      21.323  -2.058  15.455  1.00  0.00     0.040 A 
ATOM     15  C   UNL     1      21.367  -1.995  16.839  1.00  0.00     0.014 A 
ATOM     16  C   UNL     1      20.559  -3.051  14.906  1.00  0.00     0.021 A 
ATOM     17  C   UNL     1      20.666  -2.898  17.594  1.00  0.00     0.001 A 
ATOM     18  C   UNL     1      19.837  -3.981  15.657  1.00  0.00    -0.010 A 
ATOM     19  C   UNL     1      19.899  -3.894  17.030  1.00  0.00     0.007 A 
BRANCH  18  20
ATOM     20  C   UNL     1      19.023  -5.046  15.049  1.00  0.00     0.265 C 
BRANCH  20  21
ATOM     21  O   UNL     1      17.691  -5.045  15.437  1.00  0.00    -0.488 OA
BRANCH  21  22
ATOM     22  C   UNL     1      16.741  -4.200  14.943  1.00  0.00     0.132 A 
ATOM     23  C   UNL     1      15.605  -4.807  14.381  1.00  0.00     0.081 A 
ATOM     24  C   UNL     1      16.841  -2.834  14.966  1.00  0.00     0.047 A 
ATOM     25  C   UNL     1      14.616  -3.997  13.867  1.00  0.00     0.018 A 
ATOM     26  C   UNL     1      15.814  -2.070  14.433  1.00  0.00     0.004 A 
ATOM     27  C   UNL     1      14.711  -2.636  13.887  1.00  0.00     0.001 A 
BRANCH  23  28
ATOM     28  C   UNL     1      15.505  -6.248  14.358  1.00  0.00     0.252 C 
ATOM     29  N   UNL     1      16.360  -6.983  13.495  1.00  0.00    -0.365 N 
ATOM     30  O   UNL     1      14.679  -6.832  15.089  1.00  0.00    -0.269 OA
ATOM     31  H   UNL     1      16.041  -7.372  12.587  1.00  0.00     0.159 HD
ATOM     32  H   UNL     1      17.361  -7.123  13.813  1.00  0.00     0.159 HD
ENDBRANCH  23  28
ENDBRANCH  21  22
ENDBRANCH  20  21
ENDBRANCH  18  20
ENDBRANCH  12  14
ENDBRANCH   9  10
ENDBRANCH   8   9
BRANCH   8  33
ATOM     33  N   UNL     1      23.548   1.949  16.011  1.00  0.00    -0.340 N 
ATOM     34  C   UNL     1      23.812   1.244  17.204  1.00  0.00     0.258 C 
ATOM     35  H   UNL     1      22.767   2.673  16.003  1.00  0.00     0.164 HD
ATOM     36  O   UNL     1      24.714   0.345  17.213  1.00  0.00    -0.271 OA
BRANCH  34  37
ATOM     37  C   UNL     1      23.061   1.527  18.459  1.00  0.00     0.329 C 
BRANCH  37  38
ATOM     38  O   UNL     1      22.026   2.436  18.243  1.00  0.00    -0.483 OA
BRANCH  38  39
ATOM     39  C   UNL     1      20.748   1.986  17.978  1.00  0.00     0.131 A 
ATOM     40  C   UNL     1      20.365   1.445  16.767  1.00  0.00     0.050 A 
ATOM     41  C   UNL     1      19.838   2.110  19.035  1.00  0.00     0.063 A 
ATOM     42  C   UNL     1      19.064   1.018  16.583  1.00  0.00    -0.044 A 
ATOM     43  C   UNL     1      18.552   1.682  18.840  1.00  0.00     0.142 A 
ATOM     44  C   UNL     1      20.261   2.658  20.245  1.00  0.00    -0.023 A 
ATOM     45  C   UNL     1      18.646   0.431  15.263  1.00  0.00     0.044 C 
ATOM     46  C   UNL     1      18.173   1.143  17.623  1.00  0.00     0.051 A 
ATOM     47  O   UNL     1      17.675   1.793  19.834  1.00  0.00    -0.422 OA
ATOM     48  C   UNL     1      19.307   2.750  21.244  1.00  0.00     0.042 A 
ATOM     49  C   UNL     1      21.544   3.185  20.733  1.00  0.00     0.037 C 
ATOM     50  C   UNL     1      18.037   2.302  20.979  1.00  0.00     0.339 A 
ATOM     51  C   UNL     1      19.897   3.349  22.479  1.00  0.00     0.044 C 
ATOM     52  C   UNL     1      21.373   3.115  22.257  1.00  0.00     0.010 C 
ATOM     53  O   UNL     1      17.179   2.391  21.900  1.00  0.00    -0.246 OA
ENDBRANCH  38  39
ENDBRANCH  37  38
ENDBRANCH  34  37
ENDBRANCH   8  33
ENDBRANCH   5   8
ENDBRANCH   3   4
ENDBRANCH   2   3
ENDBRANCH   1   2
BRANCH   1  54
ATOM     54  C   UNL     1      29.711   6.142  16.837  1.00  0.00     0.000 C 
BRANCH  54  55
ATOM     55  C   UNL     1      30.435   5.805  15.578  1.00  0.00     0.000 C 
BRANCH  55  56
ATOM     56  C   UNL     1      31.458   6.833  15.204  1.00  0.00     0.000 C 
BRANCH  56  57
ATOM     57  C   UNL     1      30.738   8.084  14.750  1.00  0.00     0.000 C 
BRANCH  57  58
ATOM     58  C   UNL     1      29.930   7.740  13.515  1.00  0.00     0.000 C 
BRANCH  58  59
ATOM     59  C   UNL     1      28.507   8.293  13.630  1.00  0.00     0.000 C 
BRANCH  59  60
ATOM     60  C   UNL     1      28.285   9.023  14.877  1.00  0.00     0.001 C 
BRANCH  60  61
ATOM     61  C   UNL     1      27.289   9.325  15.753  1.00  0.00     0.009 C 
BRANCH  61  62
ATOM     62  C   UNL     1      25.950   9.869  16.118  1.00  0.00    -0.012 C 
BRANCH  62  63
ATOM     63  C   UNL     1      26.076  11.382  15.892  1.00  0.00    -0.018 C 
ATOM     64  C   UNL     1      27.171  12.004  16.742  1.00  0.00     0.033 C 
ATOM     65  C   UNL     1      26.513  11.729  14.499  1.00  0.00     0.033 C 
ATOM     66  C   UNL     1      24.982  12.257  16.248  1.00  0.00     0.033 C 
ATOM     67  C   UNL     1      27.491  13.433  16.401  1.00  0.00     0.101 C 
ATOM     68  C   UNL     1      26.656  13.220  14.219  1.00  0.00     0.101 C 
ATOM     69  C   UNL     1      25.233  13.749  15.916  1.00  0.00     0.101 C 
ATOM     70  C   UNL     1      27.855  13.700  15.001  1.00  0.00     0.051 C 
ATOM     71  C   UNL     1      26.330  14.332  16.765  1.00  0.00     0.051 C 
ATOM     72  C   UNL     1      25.428  14.005  14.473  1.00  0.00     0.051 C 
BRANCH  67  73
ATOM     73  S   UNL     1      28.839  13.988  17.445  1.00  0.00     0.270 S 
ATOM     74  O   UNL     1      30.093  14.129  16.669  1.00  0.00    -0.199 OA
ATOM     75  O   UNL     1      28.444  15.380  17.907  1.00  0.00    -0.199 OA
BRANCH  73  76
ATOM     76  O   UNL     1      28.983  13.056  18.817  1.00  0.00    -0.285 OA
ATOM     77  H   UNL     1      28.306  13.411  19.470  1.00  0.00     0.234 HD
ENDBRANCH  73  76
ENDBRANCH  67  73
BRANCH  68  78
ATOM     78  S   UNL     1      27.085  13.411  12.494  1.00  0.00     0.270 S 
ATOM     79  O   UNL     1      27.363  12.092  11.875  1.00  0.00    -0.199 OA
ATOM     80  O   UNL     1      28.331  14.276  12.470  1.00  0.00    -0.199 OA
BRANCH  78  81
ATOM     81  O   UNL     1      25.871  14.251  11.671  1.00  0.00    -0.285 OA
ATOM     82  H   UNL     1      24.980  13.921  11.968  1.00  0.00     0.234 HD
ENDBRANCH  78  81
ENDBRANCH  68  78
BRANCH  69  83
ATOM     83  S   UNL     1      23.773  14.664  16.403  1.00  0.00     0.270 S 
ATOM     84  O   UNL     1      24.048  15.570  17.537  1.00  0.00    -0.199 OA
ATOM     85  O   UNL     1      22.732  13.665  16.892  1.00  0.00    -0.199 OA
BRANCH  83  86
ATOM     86  O   UNL     1      23.137  15.523  15.135  1.00  0.00    -0.285 OA
ATOM     87  H   UNL     1      23.494  16.439  15.147  1.00  0.00     0.234 HD
ENDBRANCH  83  86
ENDBRANCH  69  83
ENDBRANCH  62  63
BRANCH  62  88
ATOM     88  C   UNL     1      24.884   9.206  15.268  1.00  0.00    -0.018 C 
ATOM     89  C   UNL     1      23.468   9.605  15.598  1.00  0.00     0.033 C 
ATOM     90  C   UNL     1      24.917   7.777  15.005  1.00  0.00     0.033 C 
ATOM     91  C   UNL     1      24.825   9.863  13.882  1.00  0.00     0.033 C 
ATOM     92  C   UNL     1      22.434   9.084  14.586  1.00  0.00     0.101 C 
ATOM     93  C   UNL     1      23.743   7.224  14.174  1.00  0.00     0.101 C 
ATOM     94  C   UNL     1      23.985   9.178  12.888  1.00  0.00     0.101 C 
ATOM     95  C   UNL     1      22.410   7.572  14.682  1.00  0.00     0.051 C 
ATOM     96  C   UNL     1      22.527   9.559  13.215  1.00  0.00     0.051 C 
ATOM     97  C   UNL     1      23.984   7.729  12.746  1.00  0.00     0.051 C 
BRANCH  92  98
ATOM     98  S   UNL     1      20.840   9.644  15.199  1.00  0.00     0.270 S 
ATOM     99  O   UNL     1      20.060   8.484  15.764  1.00  0.00    -0.199 OA
ATOM    100  O   UNL     1      20.021  10.275  14.134  1.00  0.00    -0.199 OA
BRANCH  98 101
ATOM    101  O   UNL     1      21.063  10.772  16.426  1.00  0.00    -0.285 OA
ATOM    102  H   UNL     1      20.674  11.654  16.193  1.00  0.00     0.234 HD
ENDBRANCH  98 101
ENDBRANCH  92  98
BRANCH  93 103
ATOM    103  S   UNL     1      23.895   5.452  14.098  1.00  0.00     0.270 S 
ATOM    104  O   UNL     1      24.005   4.970  15.516  1.00  0.00    -0.199 OA
ATOM    105  O   UNL     1      22.666   4.823  13.510  1.00  0.00    -0.199 OA
BRANCH 103 106
ATOM    106  O   UNL     1      25.289   5.038  13.300  1.00  0.00    -0.285 OA
ATOM    107  H   UNL     1      25.323   4.093  13.044  1.00  0.00     0.234 HD
ENDBRANCH 103 106
ENDBRANCH  93 103
BRANCH  94 108
ATOM    108  S   UNL     1      24.275   9.897  11.271  1.00  0.00     0.270 S 
ATOM    109  O   UNL     1      25.621   9.366  10.809  1.00  0.00    -0.199 OA
ATOM    110  O   UNL     1      23.261   9.446  10.275  1.00  0.00    -0.199 OA
BRANCH 108 111
ATOM    111  O   UNL     1      24.417  11.551  11.380  1.00  0.00    -0.285 OA
ATOM    112  H   UNL     1      24.490  11.929  10.472  1.00  0.00     0.234 HD
ENDBRANCH 108 111
ENDBRANCH  94 108
ENDBRANCH  62  88
BRANCH  62 113
ATOM    113  C   UNL     1      25.745   9.604  17.623  1.00  0.00    -0.018 C 
ATOM    114  C   UNL     1      25.510   8.192  18.013  1.00  0.00     0.033 C 
ATOM    115  C   UNL     1      27.115   9.646  18.343  1.00  0.00     0.033 C 
ATOM    116  C   UNL     1      24.760  10.385  18.352  1.00  0.00     0.033 C 
ATOM    117  C   UNL     1      25.440   7.956  19.539  1.00  0.00     0.101 C 
ATOM    118  C   UNL     1      27.007   9.667  19.820  1.00  0.00     0.101 C 
ATOM    119  C   UNL     1      24.653  10.067  19.865  1.00  0.00     0.101 C 
ATOM    120  C   UNL     1      26.688   8.216  20.251  1.00  0.00     0.051 C 
ATOM    121  C   UNL     1      24.263   8.667  20.107  1.00  0.00     0.051 C 
ATOM    122  C   UNL     1      25.973  10.499  20.447  1.00  0.00     0.051 C 
BRANCH 117 123
ATOM    123  S   UNL     1      25.093   6.195  19.729  1.00  0.00     0.270 S 
ATOM    124  O   UNL     1      25.261   5.492  18.432  1.00  0.00    -0.199 OA
ATOM    125  O   UNL     1      23.645   6.049  20.161  1.00  0.00    -0.199 OA
BRANCH 123 126
ATOM    126  O   UNL     1      26.034   5.521  20.931  1.00  0.00    -0.285 OA
ATOM    127  H   UNL     1      26.412   6.168  21.560  1.00  0.00     0.234 HD
ENDBRANCH 123 126
ENDBRANCH 117 123
BRANCH 118 128
ATOM    128  S   UNL     1      28.587  10.014  20.556  1.00  0.00     0.270 S 
ATOM    129  O   UNL     1      28.943   8.944  21.539  1.00  0.00    -0.199 OA
ATOM    130  O   UNL     1      29.666  10.114  19.488  1.00  0.00    -0.199 OA
BRANCH 128 131
ATOM    131  O   UNL     1      28.552  11.477  21.358  1.00  0.00    -0.285 OA
ATOM    132  H   UNL     1      28.206  11.425  22.263  1.00  0.00     0.234 HD
ENDBRANCH 128 131
ENDBRANCH 118 128
BRANCH 119 133
ATOM    133  S   UNL     1      23.363  11.094  20.539  1.00  0.00     0.270 S 
ATOM    134  O   UNL     1      22.473  10.194  21.346  1.00  0.00    -0.199 OA
ATOM    135  O   UNL     1      23.927  12.218  21.361  1.00  0.00    -0.199 OA
BRANCH 133 136
ATOM    136  O   UNL     1      22.423  11.678  19.261  1.00  0.00    -0.285 OA
ATOM    137  H   UNL     1      22.485  12.664  19.170  1.00  0.00     0.234 HD
ENDBRANCH 133 136
ENDBRANCH 119 133
ENDBRANCH  62 113
ENDBRANCH  61  62
ENDBRANCH  60  61
ENDBRANCH  59  60
ENDBRANCH  58  59
ENDBRANCH  57  58
ENDBRANCH  56  57
ENDBRANCH  55  56
ENDBRANCH  54  55
ENDBRANCH   1  54
TORSDOF 45
ENDMDL
MODEL 10
REMARK VINA RESULT:   -10.557      1.519      6.415
REMARK INTER + INTRA:         -45.790
REMARK INTER:                 -34.173
REMARK INTRA:                 -11.617
REMARK UNBOUND:               -10.237
REMARK SMILES Cc1cc(OCC(=O)N[C@H](CNC(=O)c2cccc(COc3ccccc3C(N)=O)c2)C(=O)NCCCCCCCCCCCC([C@]23C[C@]4(S(=O)(=O)O)C[C@](S(=O)(=O)O)(C2)C[C@](S(=O)(=O)O)(C3)C4)([C@]23C[C@]4(S(=O)(=O)O)C[C@](S(=O)(=O)O)(C2)C[C@](S(=O)(=O)O)(C3)C4)[C@]23C[C@]4(S(=O)(=O)O)C[C@](S(=O)(=O)O)(C2)C[C@](S(=O)(=O)O)(C3)C4)c2c3c(c(=O)oc2c1)CCC3
REMARK SMILES IDX 37 1 36 2 35 3 34 4 32 5 33 6 10 8 11 9 12 10 14 11 13 12
REMARK SMILES IDX 15 14 16 15 31 16 17 17 19 18 18 19 20 20 21 21 22 22 27 23
REMARK SMILES IDX 23 24 26 25 24 26 25 27 28 28 29 29 30 30 9 33 7 34 8 36
REMARK SMILES IDX 6 37 5 38 4 39 3 40 113 41 2 42 119 43 114 44 1 45 120 46
REMARK SMILES IDX 118 47 115 48 123 49 116 50 121 51 122 52 117 53 38 54 39 55
REMARK SMILES IDX 40 56 41 57 42 58 43 59 44 60 45 61 46 62 69 63 82 64 89 65
REMARK SMILES IDX 70 66 77 67 84 68 71 69 83 70 76 71 90 72 78 73 79 74 80 75
REMARK SMILES IDX 81 76 85 78 86 79 87 80 88 81 72 83 73 84 74 85 75 86 47 88
REMARK SMILES IDX 48 89 60 90 67 91 49 92 55 93 62 94 54 95 68 96 61 97 50 98
REMARK SMILES IDX 51 99 52 100 53 101 56 103 57 104 58 105 59 106 63 108
REMARK SMILES IDX 64 109 65 110 66 111 91 113 104 114 111 115 92 116 99 117
REMARK SMILES IDX 106 118 93 119 105 120 98 121 112 122 100 123 101 124
REMARK SMILES IDX 102 125 103 126 107 128 108 129 109 130 110 131 94 133
REMARK SMILES IDX 95 134 96 135 97 136
REMARK H PARENT 34 7 12 13 29 31 29 32 9 35 81 77 88 82 75 87 53 102 59 107
REMARK H PARENT 66 112 103 127 110 132 97 137
REMARK Flexibility Score: inf
ROOT
ATOM      1  C   UNL     1      22.552   0.300  13.288  1.00  0.00     0.002 C 
ENDROOT
BRANCH   1   2
ATOM      2  C   UNL     1      22.850  -1.133  13.446  1.00  0.00     0.021 C 
BRANCH   2   3
ATOM      3  C   UNL     1      21.845  -2.111  13.881  1.00  0.00     0.116 C 
BRANCH   3   4
ATOM      4  N   UNL     1      20.543  -1.663  14.237  1.00  0.00    -0.354 N 
ATOM      5  C   UNL     1      19.579  -2.328  14.992  1.00  0.00     0.244 C 
ATOM      6  O   UNL     1      19.755  -3.476  15.436  1.00  0.00    -0.273 OA
ATOM      7  H   UNL     1      20.245  -0.685  13.887  1.00  0.00     0.163 HD
BRANCH   5   8
ATOM      8  C   UNL     1      18.247  -1.717  15.332  1.00  0.00     0.190 C 
BRANCH   8   9
ATOM      9  C   UNL     1      17.115  -2.639  15.341  1.00  0.00     0.151 C 
BRANCH   9  10
ATOM     10  N   UNL     1      16.942  -3.540  14.251  1.00  0.00    -0.349 N 
ATOM     11  O   UNL     1      16.439  -5.482  15.413  1.00  0.00    -0.269 OA
ATOM     12  C   UNL     1      16.617  -4.898  14.298  1.00  0.00     0.251 C 
ATOM     13  H   UNL     1      17.082  -3.133  13.250  1.00  0.00     0.163 HD
BRANCH  12  14
ATOM     14  C   UNL     1      16.461  -5.716  13.123  1.00  0.00     0.040 A 
ATOM     15  C   UNL     1      15.484  -5.426  12.183  1.00  0.00     0.014 A 
ATOM     16  C   UNL     1      17.281  -6.777  12.855  1.00  0.00     0.021 A 
ATOM     17  C   UNL     1      15.371  -6.186  11.048  1.00  0.00     0.001 A 
ATOM     18  C   UNL     1      17.183  -7.563  11.705  1.00  0.00    -0.010 A 
ATOM     19  C   UNL     1      16.203  -7.252  10.788  1.00  0.00     0.007 A 
BRANCH  18  20
ATOM     20  C   UNL     1      18.072  -8.705  11.435  1.00  0.00     0.265 C 
BRANCH  20  21
ATOM     21  O   UNL     1      17.791  -9.388  10.261  1.00  0.00    -0.488 OA
BRANCH  21  22
ATOM     22  C   UNL     1      16.717 -10.210  10.081  1.00  0.00     0.132 A 
ATOM     23  C   UNL     1      16.313 -10.418   8.752  1.00  0.00     0.081 A 
ATOM     24  C   UNL     1      16.037 -10.818  11.103  1.00  0.00     0.047 A 
ATOM     25  C   UNL     1      15.232 -11.240   8.517  1.00  0.00     0.018 A 
ATOM     26  C   UNL     1      14.956 -11.634  10.806  1.00  0.00     0.004 A 
ATOM     27  C   UNL     1      14.551 -11.848   9.531  1.00  0.00     0.001 A 
BRANCH  23  28
ATOM     28  C   UNL     1      17.033  -9.773   7.678  1.00  0.00     0.252 C 
ATOM     29  N   UNL     1      17.013  -8.356   7.591  1.00  0.00    -0.365 N 
ATOM     30  O   UNL     1      17.662 -10.457   6.845  1.00  0.00    -0.269 OA
ATOM     31  H   UNL     1      16.408  -7.844   6.921  1.00  0.00     0.159 HD
ATOM     32  H   UNL     1      17.650  -7.824   8.250  1.00  0.00     0.159 HD
ENDBRANCH  23  28
ENDBRANCH  21  22
ENDBRANCH  20  21
ENDBRANCH  18  20
ENDBRANCH  12  14
ENDBRANCH   9  10
ENDBRANCH   8   9
BRANCH   8  33
ATOM     33  N   UNL     1      18.365  -0.898  16.492  1.00  0.00    -0.340 N 
ATOM     34  C   UNL     1      18.100   0.487  16.454  1.00  0.00     0.258 C 
ATOM     35  H   UNL     1      18.694  -1.334  17.406  1.00  0.00     0.164 HD
ATOM     36  O   UNL     1      17.748   1.027  15.356  1.00  0.00    -0.271 OA
BRANCH  34  37
ATOM     37  C   UNL     1      18.219   1.337  17.672  1.00  0.00     0.329 C 
BRANCH  37  38
ATOM     38  O   UNL     1      19.305   0.956  18.459  1.00  0.00    -0.483 OA
BRANCH  38  39
ATOM     39  C   UNL     1      19.909   1.870  19.301  1.00  0.00     0.131 A 
ATOM     40  C   UNL     1      19.212   2.675  20.179  1.00  0.00     0.050 A 
ATOM     41  C   UNL     1      21.304   1.933  19.213  1.00  0.00     0.063 A 
ATOM     42  C   UNL     1      19.892   3.565  20.987  1.00  0.00    -0.044 A 
ATOM     43  C   UNL     1      21.967   2.819  20.021  1.00  0.00     0.142 A 
ATOM     44  C   UNL     1      21.976   1.102  18.317  1.00  0.00    -0.023 A 
ATOM     45  C   UNL     1      19.133   4.445  21.942  1.00  0.00     0.044 C 
ATOM     46  C   UNL     1      21.263   3.626  20.897  1.00  0.00     0.051 A 
ATOM     47  O   UNL     1      23.293   2.891  19.950  1.00  0.00    -0.422 OA
ATOM     48  C   UNL     1      23.354   1.220  18.285  1.00  0.00     0.042 A 
ATOM     49  C   UNL     1      21.541   0.079  17.354  1.00  0.00     0.037 C 
ATOM     50  C   UNL     1      23.952   2.129  19.122  1.00  0.00     0.339 A 
ATOM     51  C   UNL     1      23.939   0.272  17.289  1.00  0.00     0.044 C 
ATOM     52  C   UNL     1      22.824  -0.736  17.137  1.00  0.00     0.010 C 
ATOM     53  O   UNL     1      25.210   2.224  19.082  1.00  0.00    -0.246 OA
ENDBRANCH  38  39
ENDBRANCH  37  38
ENDBRANCH  34  37
ENDBRANCH   8  33
ENDBRANCH   5   8
ENDBRANCH   3   4
ENDBRANCH   2   3
ENDBRANCH   1   2
BRANCH   1  54
ATOM     54  C   UNL     1      23.504   1.249  14.020  1.00  0.00     0.000 C 
BRANCH  54  55
ATOM     55  C   UNL     1      22.756   2.434  14.530  1.00  0.00     0.000 C 
BRANCH  55  56
ATOM     56  C   UNL     1      23.653   3.470  15.135  1.00  0.00     0.000 C 
BRANCH  56  57
ATOM     57  C   UNL     1      25.082   2.977  15.049  1.00  0.00     0.000 C 
BRANCH  57  58
ATOM     58  C   UNL     1      25.928   3.825  15.978  1.00  0.00     0.000 C 
BRANCH  58  59
ATOM     59  C   UNL     1      25.045   4.759  16.809  1.00  0.00     0.000 C 
BRANCH  59  60
ATOM     60  C   UNL     1      25.817   5.762  17.540  1.00  0.00     0.001 C 
BRANCH  60  61
ATOM     61  C   UNL     1      26.587   6.862  17.316  1.00  0.00     0.009 C 
BRANCH  61  62
ATOM     62  C   UNL     1      26.839   8.229  16.776  1.00  0.00    -0.012 C 
BRANCH  62  63
ATOM     63  C   UNL     1      26.100   8.252  15.432  1.00  0.00    -0.018 C 
ATOM     64  C   UNL     1      24.591   8.204  15.601  1.00  0.00     0.033 C 
ATOM     65  C   UNL     1      26.299   9.535  14.679  1.00  0.00     0.033 C 
ATOM     66  C   UNL     1      26.263   7.157  14.502  1.00  0.00     0.033 C 
ATOM     67  C   UNL     1      23.812   8.450  14.339  1.00  0.00     0.101 C 
ATOM     68  C   UNL     1      25.585   9.613  13.335  1.00  0.00     0.101 C 
ATOM     69  C   UNL     1      25.497   7.344  13.168  1.00  0.00     0.101 C 
ATOM     70  C   UNL     1      24.106   9.704  13.629  1.00  0.00     0.051 C 
ATOM     71  C   UNL     1      24.007   7.303  13.371  1.00  0.00     0.051 C 
ATOM     72  C   UNL     1      25.939   8.525  12.397  1.00  0.00     0.051 C 
BRANCH  67  73
ATOM     73  S   UNL     1      22.061   8.424  14.726  1.00  0.00     0.270 S 
ATOM     74  O   UNL     1      21.409   7.214  14.173  1.00  0.00    -0.199 OA
ATOM     75  O   UNL     1      21.985   8.317  16.240  1.00  0.00    -0.199 OA
BRANCH  73  76
ATOM     76  O   UNL     1      21.316   9.854  14.314  1.00  0.00    -0.285 OA
ATOM     77  H   UNL     1      20.733  10.103  15.095  1.00  0.00     0.234 HD
ENDBRANCH  73  76
ENDBRANCH  67  73
BRANCH  68  78
ATOM     78  S   UNL     1      26.031  11.166  12.572  1.00  0.00     0.270 S 
ATOM     79  O   UNL     1      24.836  11.823  11.987  1.00  0.00    -0.199 OA
ATOM     80  O   UNL     1      27.027  10.822  11.482  1.00  0.00    -0.199 OA
BRANCH  78  81
ATOM     81  O   UNL     1      26.821  12.167  13.682  1.00  0.00    -0.285 OA
ATOM     82  H   UNL     1      27.691  12.463  13.300  1.00  0.00     0.234 HD
ENDBRANCH  78  81
ENDBRANCH  68  78
BRANCH  69  83
ATOM     83  S   UNL     1      25.835   5.913  12.146  1.00  0.00     0.270 S 
ATOM     84  O   UNL     1      24.727   4.938  12.186  1.00  0.00    -0.199 OA
ATOM     85  O   UNL     1      27.055   5.203  12.720  1.00  0.00    -0.199 OA
BRANCH  83  86
ATOM     86  O   UNL     1      26.155   6.343  10.577  1.00  0.00    -0.285 OA
ATOM     87  H   UNL     1      26.152   7.323  10.498  1.00  0.00     0.234 HD
ENDBRANCH  83  86
ENDBRANCH  69  83
ENDBRANCH  62  63
BRANCH  62  88
ATOM     88  C   UNL     1      26.347   9.265  17.768  1.00  0.00    -0.018 C 
ATOM     89  C   UNL     1      24.966   9.016  18.317  1.00  0.00     0.033 C 
ATOM     90  C   UNL     1      26.495  10.686  17.502  1.00  0.00     0.033 C 
ATOM     91  C   UNL     1      27.010   9.048  19.136  1.00  0.00     0.033 C 
ATOM     92  C   UNL     1      24.586   9.958  19.470  1.00  0.00     0.101 C 
ATOM     93  C   UNL     1      25.901  11.629  18.566  1.00  0.00     0.101 C 
ATOM     94  C   UNL     1      26.787  10.110  20.127  1.00  0.00     0.101 C 
ATOM     95  C   UNL     1      24.500  11.364  18.913  1.00  0.00     0.051 C 
ATOM     96  C   UNL     1      25.370   9.885  20.693  1.00  0.00     0.051 C 
ATOM     97  C   UNL     1      26.842  11.521  19.773  1.00  0.00     0.051 C 
BRANCH  92  98
ATOM     98  S   UNL     1      22.909   9.504  19.928  1.00  0.00     0.270 S 
ATOM     99  O   UNL     1      22.507  10.203  21.202  1.00  0.00    -0.199 OA
ATOM    100  O   UNL     1      22.762   8.042  20.138  1.00  0.00    -0.199 OA
BRANCH  98 101
ATOM    101  O   UNL     1      21.838   9.969  18.716  1.00  0.00    -0.285 OA
ATOM    102  H   UNL     1      22.313  10.306  17.914  1.00  0.00     0.234 HD
ENDBRANCH  98 101
ENDBRANCH  92  98
BRANCH  93 103
ATOM    103  S   UNL     1      26.051  13.303  17.978  1.00  0.00     0.270 S 
ATOM    104  O   UNL     1      24.716  13.955  18.194  1.00  0.00    -0.199 OA
ATOM    105  O   UNL     1      27.056  14.076  18.780  1.00  0.00    -0.199 OA
BRANCH 103 106
ATOM    106  O   UNL     1      26.372  13.304  16.350  1.00  0.00    -0.285 OA
ATOM    107  H   UNL     1      25.848  12.643  15.851  1.00  0.00     0.234 HD
ENDBRANCH 103 106
ENDBRANCH  93 103
BRANCH  94 108
ATOM    108  S   UNL     1      27.868   9.846  21.533  1.00  0.00     0.270 S 
ATOM    109  O   UNL     1      28.727  11.094  21.644  1.00  0.00    -0.199 OA
ATOM    110  O   UNL     1      27.101   9.728  22.807  1.00  0.00    -0.199 OA
BRANCH 108 111
ATOM    111  O   UNL     1      28.898   8.571  21.251  1.00  0.00    -0.285 OA
ATOM    112  H   UNL     1      28.548   8.034  20.500  1.00  0.00     0.234 HD
ENDBRANCH 108 111
ENDBRANCH  94 108
ENDBRANCH  62  88
BRANCH  62 113
ATOM    113  C   UNL     1      28.355   8.343  16.517  1.00  0.00    -0.018 C 
ATOM    114  C   UNL     1      29.169   8.905  17.622  1.00  0.00     0.033 C 
ATOM    115  C   UNL     1      29.007   6.946  16.655  1.00  0.00     0.033 C 
ATOM    116  C   UNL     1      28.818   9.006  15.308  1.00  0.00     0.033 C 
ATOM    117  C   UNL     1      30.693   8.879  17.368  1.00  0.00     0.101 C 
ATOM    118  C   UNL     1      30.405   6.893  16.170  1.00  0.00     0.101 C 
ATOM    119  C   UNL     1      30.356   9.039  15.122  1.00  0.00     0.101 C 
ATOM    120  C   UNL     1      31.270   7.542  17.275  1.00  0.00     0.051 C 
ATOM    121  C   UNL     1      31.027   9.761  16.217  1.00  0.00     0.051 C 
ATOM    122  C   UNL     1      30.755   7.599  14.932  1.00  0.00     0.051 C 
BRANCH 117 123
ATOM    123  S   UNL     1      31.427   9.662  18.819  1.00  0.00     0.270 S 
ATOM    124  O   UNL     1      32.839  10.032  18.549  1.00  0.00    -0.199 OA
ATOM    125  O   UNL     1      31.410   8.652  19.953  1.00  0.00    -0.199 OA
BRANCH 123 126
ATOM    126  O   UNL     1      30.523  10.974  19.319  1.00  0.00    -0.285 OA
ATOM    127  H   UNL     1      29.589  10.766  19.527  1.00  0.00     0.234 HD
ENDBRANCH 123 126
ENDBRANCH 117 123
BRANCH 118 128
ATOM    128  S   UNL     1      30.974   5.212  16.086  1.00  0.00     0.270 S 
ATOM    129  O   UNL     1      31.837   4.901  17.267  1.00  0.00    -0.199 OA
ATOM    130  O   UNL     1      29.796   4.249  16.040  1.00  0.00    -0.199 OA
BRANCH 128 131
ATOM    131  O   UNL     1      31.867   4.964  14.699  1.00  0.00    -0.285 OA
ATOM    132  H   UNL     1      31.342   4.969  13.883  1.00  0.00     0.234 HD
ENDBRANCH 128 131
ENDBRANCH 118 128
BRANCH 119 133
ATOM    133  S   UNL     1      30.695   9.933  13.619  1.00  0.00     0.270 S 
ATOM    134  O   UNL     1      31.763  10.936  13.946  1.00  0.00    -0.199 OA
ATOM    135  O   UNL     1      31.107   9.009  12.509  1.00  0.00    -0.199 OA
BRANCH 133 136
ATOM    136  O   UNL     1      29.316  10.819  13.203  1.00  0.00    -0.285 OA
ATOM    137  H   UNL     1      28.493  10.265  13.229  1.00  0.00     0.234 HD
ENDBRANCH 133 136
ENDBRANCH 119 133
ENDBRANCH  62 113
ENDBRANCH  61  62
ENDBRANCH  60  61
ENDBRANCH  59  60
ENDBRANCH  58  59
ENDBRANCH  57  58
ENDBRANCH  56  57
ENDBRANCH  55  56
ENDBRANCH  54  55
ENDBRANCH   1  54
TORSDOF 45
ENDMDL
