MODEL 1
REMARK VINA RESULT:    -8.775      0.000      0.000
REMARK INTER + INTRA:         -42.038
REMARK INTER:                 -28.526
REMARK INTRA:                 -13.511
REMARK UNBOUND:               -13.511
REMARK SMILES Cc1cc(C(=O)N[C@H](CNC(=O)c2cccc(COc3ccccc3C(N)=O)c2)C(=O)NCCCCCCCCCCCC([C@]23C[C@]4(S(=O)(=O)O)C[C@](S(=O)(=O)O)(C2)C[C@](S(=O)(=O)O)(C3)C4)([C@]23C[C@]4(S(=O)(=O)O)C[C@](S(=O)(=O)O)(C2)C[C@](S(=O)(=O)O)(C3)C4)[C@]23C[C@]4(S(=O)(=O)O)C[C@](S(=O)(=O)O)(C2)C[C@](S(=O)(=O)O)(C3)C4)[nH]n1
REMARK SMILES IDX 35 1 34 2 33 3 32 4 30 5 31 6 8 8 9 9 10 10 12 11 11 12
REMARK SMILES IDX 13 14 14 15 29 16 15 17 17 18 16 19 18 20 19 21 20 22 25 23
REMARK SMILES IDX 21 24 24 25 22 26 23 27 26 28 27 29 28 30 7 33 5 34 6 36
REMARK SMILES IDX 4 37 3 38 111 39 2 40 112 41 1 43 36 44 37 45 38 46 39 47
REMARK SMILES IDX 40 48 41 49 42 50 43 51 44 52 67 53 80 54 87 55 68 56 75 57
REMARK SMILES IDX 82 58 69 59 81 60 74 61 88 62 76 63 77 64 78 65 79 66 83 68
REMARK SMILES IDX 84 69 85 70 86 71 70 73 71 74 72 75 73 76 45 78 46 79 58 80
REMARK SMILES IDX 65 81 47 82 53 83 60 84 52 85 66 86 59 87 48 88 49 89 50 90
REMARK SMILES IDX 51 91 54 93 55 94 56 95 57 96 61 98 62 99 63 100 64 101
REMARK SMILES IDX 89 103 102 104 109 105 90 106 97 107 104 108 91 109 103 110
REMARK SMILES IDX 96 111 110 112 98 113 99 114 100 115 101 116 105 118 106 119
REMARK SMILES IDX 107 120 108 121 92 123 93 124 94 125 95 126
REMARK H PARENT 32 7 10 13 27 31 27 32 7 35 111 42 79 67 86 72 73 77 51 92
REMARK H PARENT 57 97 64 102 101 117 108 122 95 127
REMARK Flexibility Score: inf
ROOT
ATOM      1  C   UNL     1      26.057   8.608  21.089  1.00  0.00     0.002 C 
ENDROOT
BRANCH   1   2
ATOM      2  C   UNL     1      26.282   7.248  20.499  1.00  0.00     0.021 C 
BRANCH   2   3
ATOM      3  C   UNL     1      25.164   6.261  20.707  1.00  0.00     0.116 C 
BRANCH   3   4
ATOM      4  N   UNL     1      25.195   5.020  20.088  1.00  0.00    -0.354 N 
ATOM      5  C   UNL     1      25.187   4.521  18.794  1.00  0.00     0.244 C 
ATOM      6  O   UNL     1      25.147   5.280  17.764  1.00  0.00    -0.273 OA
ATOM      7  H   UNL     1      25.245   4.165  20.833  1.00  0.00     0.163 HD
BRANCH   5   8
ATOM      8  C   UNL     1      25.236   3.100  18.464  1.00  0.00     0.191 C 
BRANCH   8   9
ATOM      9  C   UNL     1      24.643   2.208  19.574  1.00  0.00     0.151 C 
BRANCH   9  10
ATOM     10  N   UNL     1      23.249   2.027  19.405  1.00  0.00    -0.349 N 
ATOM     11  O   UNL     1      22.414   3.622  20.861  1.00  0.00    -0.269 OA
ATOM     12  C   UNL     1      22.206   2.749  20.010  1.00  0.00     0.251 C 
ATOM     13  H   UNL     1      22.967   1.258  18.712  1.00  0.00     0.163 HD
BRANCH  12  14
ATOM     14  C   UNL     1      20.850   2.380  19.535  1.00  0.00     0.040 A 
ATOM     15  C   UNL     1      19.750   2.580  20.323  1.00  0.00     0.014 A 
ATOM     16  C   UNL     1      20.709   1.932  18.258  1.00  0.00     0.021 A 
ATOM     17  C   UNL     1      18.469   2.321  19.809  1.00  0.00     0.001 A 
ATOM     18  C   UNL     1      19.430   1.667  17.724  1.00  0.00    -0.010 A 
ATOM     19  C   UNL     1      18.338   1.870  18.520  1.00  0.00     0.007 A 
BRANCH  18  20
ATOM     20  C   UNL     1      19.297   1.177  16.358  1.00  0.00     0.265 C 
BRANCH  20  21
ATOM     21  O   UNL     1      17.995   1.440  15.869  1.00  0.00    -0.488 OA
BRANCH  21  22
ATOM     22  C   UNL     1      17.792   1.418  14.480  1.00  0.00     0.132 A 
ATOM     23  C   UNL     1      17.277   0.308  13.883  1.00  0.00     0.081 A 
ATOM     24  C   UNL     1      18.130   2.536  13.766  1.00  0.00     0.047 A 
ATOM     25  C   UNL     1      17.079   0.304  12.491  1.00  0.00     0.018 A 
ATOM     26  C   UNL     1      17.938   2.534  12.387  1.00  0.00     0.004 A 
ATOM     27  C   UNL     1      17.423   1.430  11.794  1.00  0.00     0.001 A 
BRANCH  23  28
ATOM     28  C   UNL     1      16.908  -0.902  14.603  1.00  0.00     0.252 C 
ATOM     29  N   UNL     1      17.768  -2.051  14.552  1.00  0.00    -0.365 N 
ATOM     30  O   UNL     1      15.851  -0.956  15.267  1.00  0.00    -0.269 OA
ATOM     31  H   UNL     1      18.516  -2.157  15.250  1.00  0.00     0.159 HD
ATOM     32  H   UNL     1      17.623  -2.765  13.808  1.00  0.00     0.159 HD
ENDBRANCH  23  28
ENDBRANCH  21  22
ENDBRANCH  20  21
ENDBRANCH  18  20
ENDBRANCH  12  14
ENDBRANCH   9  10
ENDBRANCH   8   9
BRANCH   8  33
ATOM     33  N   UNL     1      24.498   2.712  17.274  1.00  0.00    -0.337 N 
ATOM     34  C   UNL     1      24.826   1.667  16.409  1.00  0.00     0.270 C 
ATOM     35  H   UNL     1      23.640   3.299  17.080  1.00  0.00     0.164 HD
ATOM     36  O   UNL     1      25.797   0.928  16.536  1.00  0.00    -0.268 OA
BRANCH  34  37
ATOM     37  C   UNL     1      23.909   1.446  15.266  1.00  0.00     0.123 A 
ATOM     38  C   UNL     1      22.885   0.496  15.180  1.00  0.00     0.058 A 
ATOM     39  N   UNL     1      23.879   2.054  14.067  1.00  0.00    -0.273 N 
ATOM     40  C   UNL     1      22.278   0.564  13.931  1.00  0.00     0.060 A 
ATOM     41  N   UNL     1      22.950   1.549  13.311  1.00  0.00    -0.180 NA
ATOM     42  H   UNL     1      24.532   2.839  13.771  1.00  0.00     0.190 HD
ATOM     43  C   UNL     1      21.158  -0.294  13.481  1.00  0.00     0.069 C 
ENDBRANCH  34  37
ENDBRANCH   8  33
ENDBRANCH   5   8
ENDBRANCH   3   4
ENDBRANCH   2   3
ENDBRANCH   1   2
BRANCH   1  44
ATOM     44  C   UNL     1      25.166   8.571  22.263  1.00  0.00     0.000 C 
BRANCH  44  45
ATOM     45  C   UNL     1      24.022   9.447  22.500  1.00  0.00     0.000 C 
BRANCH  45  46
ATOM     46  C   UNL     1      23.381  10.222  21.429  1.00  0.00     0.000 C 
BRANCH  46  47
ATOM     47  C   UNL     1      22.064   9.697  20.902  1.00  0.00     0.000 C 
BRANCH  47  48
ATOM     48  C   UNL     1      22.356   8.579  19.857  1.00  0.00     0.000 C 
BRANCH  48  49
ATOM     49  C   UNL     1      22.954   9.118  18.625  1.00  0.00     0.000 C 
BRANCH  49  50
ATOM     50  C   UNL     1      24.015   8.187  17.933  1.00  0.00     0.001 C 
BRANCH  50  51
ATOM     51  C   UNL     1      24.979   9.031  17.412  1.00  0.00     0.009 C 
BRANCH  51  52
ATOM     52  C   UNL     1      25.629   9.511  16.116  1.00  0.00    -0.012 C 
BRANCH  52  53
ATOM     53  C   UNL     1      25.698  11.026  16.508  1.00  0.00    -0.018 C 
ATOM     54  C   UNL     1      26.291  11.888  15.449  1.00  0.00     0.033 C 
ATOM     55  C   UNL     1      24.368  11.577  16.952  1.00  0.00     0.033 C 
ATOM     56  C   UNL     1      26.498  11.383  17.681  1.00  0.00     0.033 C 
ATOM     57  C   UNL     1      26.234  13.391  15.728  1.00  0.00     0.101 C 
ATOM     58  C   UNL     1      24.390  13.107  17.126  1.00  0.00     0.101 C 
ATOM     59  C   UNL     1      26.614  12.906  17.927  1.00  0.00     0.101 C 
ATOM     60  C   UNL     1      24.823  13.833  15.893  1.00  0.00     0.051 C 
ATOM     61  C   UNL     1      27.170  13.680  16.840  1.00  0.00     0.051 C 
ATOM     62  C   UNL     1      25.254  13.516  18.260  1.00  0.00     0.051 C 
BRANCH  57  63
ATOM     63  S   UNL     1      26.891  14.300  14.319  1.00  0.00     0.270 S 
ATOM     64  O   UNL     1      28.354  14.509  14.427  1.00  0.00    -0.199 OA
ATOM     65  O   UNL     1      26.634  13.420  13.119  1.00  0.00    -0.199 OA
BRANCH  63  66
ATOM     66  O   UNL     1      26.080  15.733  14.166  1.00  0.00    -0.285 OA
ATOM     67  H   UNL     1      25.224  15.571  13.680  1.00  0.00     0.234 HD
ENDBRANCH  63  66
ENDBRANCH  57  63
BRANCH  58  68
ATOM     68  S   UNL     1      22.726  13.673  17.492  1.00  0.00     0.270 S 
ATOM     69  O   UNL     1      22.755  14.803  18.460  1.00  0.00    -0.199 OA
ATOM     70  O   UNL     1      22.121  14.177  16.205  1.00  0.00    -0.199 OA
BRANCH  68  71
ATOM     71  O   UNL     1      21.752  12.436  18.022  1.00  0.00    -0.285 OA
ATOM     72  H   UNL     1      21.261  12.746  18.810  1.00  0.00     0.234 HD
ENDBRANCH  68  71
ENDBRANCH  58  68
BRANCH  59  73
ATOM     73  S   UNL     1      27.618  13.077  19.380  1.00  0.00     0.270 S 
ATOM     74  O   UNL     1      27.111  14.221  20.232  1.00  0.00    -0.199 OA
ATOM     75  O   UNL     1      27.495  11.835  20.217  1.00  0.00    -0.199 OA
BRANCH  73  76
ATOM     76  O   UNL     1      29.218  13.288  18.979  1.00  0.00    -0.285 OA
ATOM     77  H   UNL     1      29.754  13.409  19.781  1.00  0.00     0.234 HD
ENDBRANCH  73  76
ENDBRANCH  59  73
ENDBRANCH  52  53
BRANCH  52  78
ATOM     78  C   UNL     1      26.978   8.871  16.039  1.00  0.00    -0.018 C 
ATOM     79  C   UNL     1      26.892   7.386  15.644  1.00  0.00     0.033 C 
ATOM     80  C   UNL     1      27.776   8.746  17.271  1.00  0.00     0.033 C 
ATOM     81  C   UNL     1      27.918   9.474  15.032  1.00  0.00     0.033 C 
ATOM     82  C   UNL     1      28.239   6.738  15.394  1.00  0.00     0.101 C 
ATOM     83  C   UNL     1      29.159   8.089  17.056  1.00  0.00     0.101 C 
ATOM     84  C   UNL     1      29.243   8.748  14.848  1.00  0.00     0.101 C 
ATOM     85  C   UNL     1      29.062   6.651  16.656  1.00  0.00     0.051 C 
ATOM     86  C   UNL     1      29.036   7.365  14.313  1.00  0.00     0.051 C 
ATOM     87  C   UNL     1      30.014   8.827  16.109  1.00  0.00     0.051 C 
BRANCH  82  88
ATOM     88  S   UNL     1      27.897   5.039  14.915  1.00  0.00     0.270 S 
ATOM     89  O   UNL     1      28.937   4.189  15.570  1.00  0.00    -0.199 OA
ATOM     90  O   UNL     1      27.942   4.879  13.416  1.00  0.00    -0.199 OA
BRANCH  88  91
ATOM     91  O   UNL     1      26.380   4.639  15.452  1.00  0.00    -0.285 OA
ATOM     92  H   UNL     1      26.298   3.665  15.535  1.00  0.00     0.234 HD
ENDBRANCH  88  91
ENDBRANCH  82  88
BRANCH  83  93
ATOM     93  S   UNL     1      29.917   8.099  18.687  1.00  0.00     0.270 S 
ATOM     94  O   UNL     1      29.595   6.804  19.410  1.00  0.00    -0.199 OA
ATOM     95  O   UNL     1      31.406   8.132  18.550  1.00  0.00    -0.199 OA
BRANCH  93  96
ATOM     96  O   UNL     1      29.296   9.339  19.596  1.00  0.00    -0.285 OA
ATOM     97  H   UNL     1      28.715   8.970  20.299  1.00  0.00     0.234 HD
ENDBRANCH  93  96
ENDBRANCH  83  93
BRANCH  84  98
ATOM     98  S   UNL     1      30.193   9.614  13.597  1.00  0.00     0.270 S 
ATOM     99  O   UNL     1      29.239  10.363  12.736  1.00  0.00    -0.199 OA
ATOM    100  O   UNL     1      31.012   8.672  12.770  1.00  0.00    -0.199 OA
BRANCH  98 101
ATOM    101  O   UNL     1      31.214  10.727  14.324  1.00  0.00    -0.285 OA
ATOM    102  H   UNL     1      31.575  10.388  15.194  1.00  0.00     0.234 HD
ENDBRANCH  98 101
ENDBRANCH  84  98
ENDBRANCH  52  78
BRANCH  52 103
ATOM    103  C   UNL     1      24.644   9.251  15.024  1.00  0.00    -0.018 C 
ATOM    104  C   UNL     1      24.918   9.776  13.643  1.00  0.00     0.033 C 
ATOM    105  C   UNL     1      24.483   7.745  14.833  1.00  0.00     0.033 C 
ATOM    106  C   UNL     1      23.253   9.659  15.257  1.00  0.00     0.033 C 
ATOM    107  C   UNL     1      24.016   9.230  12.565  1.00  0.00     0.101 C 
ATOM    108  C   UNL     1      23.488   7.316  13.760  1.00  0.00     0.101 C 
ATOM    109  C   UNL     1      22.244   9.116  14.232  1.00  0.00     0.101 C 
ATOM    110  C   UNL     1      23.977   7.766  12.435  1.00  0.00     0.051 C 
ATOM    111  C   UNL     1      22.549   9.633  12.817  1.00  0.00     0.051 C 
ATOM    112  C   UNL     1      22.115   7.673  14.136  1.00  0.00     0.051 C 
BRANCH 107 113
ATOM    113  S   UNL     1      24.505  10.050  11.051  1.00  0.00     0.270 S 
ATOM    114  O   UNL     1      23.319  10.150  10.118  1.00  0.00    -0.199 OA
ATOM    115  O   UNL     1      25.541   9.195  10.359  1.00  0.00    -0.199 OA
BRANCH 113 116
ATOM    116  O   UNL     1      25.103  11.576  11.341  1.00  0.00    -0.285 OA
ATOM    117  H   UNL     1      26.086  11.554  11.171  1.00  0.00     0.234 HD
ENDBRANCH 113 116
ENDBRANCH 107 113
BRANCH 108 118
ATOM    118  S   UNL     1      23.500   5.523  13.717  1.00  0.00     0.270 S 
ATOM    119  O   UNL     1      22.114   5.111  13.259  1.00  0.00    -0.199 OA
ATOM    120  O   UNL     1      24.538   4.990  12.793  1.00  0.00    -0.199 OA
BRANCH 118 121
ATOM    121  O   UNL     1      23.702   4.957  15.288  1.00  0.00    -0.285 OA
ATOM    122  H   UNL     1      24.170   4.109  15.283  1.00  0.00     0.234 HD
ENDBRANCH 118 121
ENDBRANCH 108 118
BRANCH 109 123
ATOM    123  S   UNL     1      20.634   9.806  14.638  1.00  0.00     0.270 S 
ATOM    124  O   UNL     1      20.798  10.824  15.736  1.00  0.00    -0.199 OA
ATOM    125  O   UNL     1      20.198  10.544  13.405  1.00  0.00    -0.199 OA
BRANCH 123 126
ATOM    126  O   UNL     1      19.580   8.590  15.044  1.00  0.00    -0.285 OA
ATOM    127  H   UNL     1      19.464   8.009  14.232  1.00  0.00     0.234 HD
ENDBRANCH 123 126
ENDBRANCH 109 123
ENDBRANCH  52 103
ENDBRANCH  51  52
ENDBRANCH  50  51
ENDBRANCH  49  50
ENDBRANCH  48  49
ENDBRANCH  47  48
ENDBRANCH  46  47
ENDBRANCH  45  46
ENDBRANCH  44  45
ENDBRANCH   1  44
TORSDOF 43
ENDMDL
MODEL 2
REMARK VINA RESULT:    -8.712      0.617      2.379
REMARK INTER + INTRA:         -41.832
REMARK INTER:                 -27.805
REMARK INTRA:                 -14.027
REMARK UNBOUND:               -13.511
REMARK SMILES Cc1cc(C(=O)N[C@H](CNC(=O)c2cccc(COc3ccccc3C(N)=O)c2)C(=O)NCCCCCCCCCCCC([C@]23C[C@]4(S(=O)(=O)O)C[C@](S(=O)(=O)O)(C2)C[C@](S(=O)(=O)O)(C3)C4)([C@]23C[C@]4(S(=O)(=O)O)C[C@](S(=O)(=O)O)(C2)C[C@](S(=O)(=O)O)(C3)C4)[C@]23C[C@]4(S(=O)(=O)O)C[C@](S(=O)(=O)O)(C2)C[C@](S(=O)(=O)O)(C3)C4)[nH]n1
REMARK SMILES IDX 35 1 34 2 33 3 32 4 30 5 31 6 8 8 9 9 10 10 12 11 11 12
REMARK SMILES IDX 13 14 14 15 29 16 15 17 17 18 16 19 18 20 19 21 20 22 25 23
REMARK SMILES IDX 21 24 24 25 22 26 23 27 26 28 27 29 28 30 7 33 5 34 6 36
REMARK SMILES IDX 4 37 3 38 111 39 2 40 112 41 1 43 36 44 37 45 38 46 39 47
REMARK SMILES IDX 40 48 41 49 42 50 43 51 44 52 67 53 80 54 87 55 68 56 75 57
REMARK SMILES IDX 82 58 69 59 81 60 74 61 88 62 76 63 77 64 78 65 79 66 83 68
REMARK SMILES IDX 84 69 85 70 86 71 70 73 71 74 72 75 73 76 45 78 46 79 58 80
REMARK SMILES IDX 65 81 47 82 53 83 60 84 52 85 66 86 59 87 48 88 49 89 50 90
REMARK SMILES IDX 51 91 54 93 55 94 56 95 57 96 61 98 62 99 63 100 64 101
REMARK SMILES IDX 89 103 102 104 109 105 90 106 97 107 104 108 91 109 103 110
REMARK SMILES IDX 96 111 110 112 98 113 99 114 100 115 101 116 105 118 106 119
REMARK SMILES IDX 107 120 108 121 92 123 93 124 94 125 95 126
REMARK H PARENT 32 7 10 13 27 31 27 32 7 35 111 42 79 67 86 72 73 77 51 92
REMARK H PARENT 57 97 64 102 101 117 108 122 95 127
REMARK Flexibility Score: inf
ROOT
ATOM      1  C   UNL     1      25.528   8.265  22.125  1.00  0.00     0.002 C 
ENDROOT
BRANCH   1   2
ATOM      2  C   UNL     1      25.659   7.311  20.976  1.00  0.00     0.021 C 
BRANCH   2   3
ATOM      3  C   UNL     1      24.481   6.399  20.758  1.00  0.00     0.116 C 
BRANCH   3   4
ATOM      4  N   UNL     1      24.650   5.163  20.150  1.00  0.00    -0.354 N 
ATOM      5  C   UNL     1      24.954   4.677  18.887  1.00  0.00     0.244 C 
ATOM      6  O   UNL     1      25.176   5.447  17.889  1.00  0.00    -0.273 OA
ATOM      7  H   UNL     1      24.505   4.300  20.873  1.00  0.00     0.163 HD
BRANCH   5   8
ATOM      8  C   UNL     1      25.067   3.259  18.561  1.00  0.00     0.191 C 
BRANCH   8   9
ATOM      9  C   UNL     1      24.463   2.346  19.647  1.00  0.00     0.151 C 
BRANCH   9  10
ATOM     10  N   UNL     1      23.097   2.070  19.392  1.00  0.00    -0.349 N 
ATOM     11  O   UNL     1      22.065   3.529  20.864  1.00  0.00    -0.269 OA
ATOM     12  C   UNL     1      21.971   2.683  19.966  1.00  0.00     0.251 C 
ATOM     13  H   UNL     1      22.913   1.314  18.653  1.00  0.00     0.163 HD
BRANCH  12  14
ATOM     14  C   UNL     1      20.675   2.236  19.400  1.00  0.00     0.040 A 
ATOM     15  C   UNL     1      19.492   2.581  19.994  1.00  0.00     0.014 A 
ATOM     16  C   UNL     1      20.680   1.561  18.219  1.00  0.00     0.021 A 
ATOM     17  C   UNL     1      18.277   2.235  19.380  1.00  0.00     0.001 A 
ATOM     18  C   UNL     1      19.470   1.206  17.587  1.00  0.00    -0.010 A 
ATOM     19  C   UNL     1      18.294   1.555  18.188  1.00  0.00     0.007 A 
BRANCH  18  20
ATOM     20  C   UNL     1      19.493   0.473  16.327  1.00  0.00     0.265 C 
BRANCH  20  21
ATOM     21  O   UNL     1      18.193   0.413  15.772  1.00  0.00    -0.488 OA
BRANCH  21  22
ATOM     22  C   UNL     1      18.009   0.888  14.463  1.00  0.00     0.132 A 
ATOM     23  C   UNL     1      17.370   0.117  13.540  1.00  0.00     0.081 A 
ATOM     24  C   UNL     1      18.490   2.133  14.162  1.00  0.00     0.047 A 
ATOM     25  C   UNL     1      17.194   0.609  12.235  1.00  0.00     0.018 A 
ATOM     26  C   UNL     1      18.320   2.623  12.869  1.00  0.00     0.004 A 
ATOM     27  C   UNL     1      17.682   1.855  11.952  1.00  0.00     0.001 A 
BRANCH  23  28
ATOM     28  C   UNL     1      16.847  -1.213  13.818  1.00  0.00     0.252 C 
ATOM     29  N   UNL     1      17.718  -2.227  14.341  1.00  0.00    -0.365 N 
ATOM     30  O   UNL     1      15.645  -1.485  13.607  1.00  0.00    -0.269 OA
ATOM     31  H   UNL     1      17.830  -2.325  15.359  1.00  0.00     0.159 HD
ATOM     32  H   UNL     1      18.228  -2.852  13.682  1.00  0.00     0.159 HD
ENDBRANCH  23  28
ENDBRANCH  21  22
ENDBRANCH  20  21
ENDBRANCH  18  20
ENDBRANCH  12  14
ENDBRANCH   9  10
ENDBRANCH   8   9
BRANCH   8  33
ATOM     33  N   UNL     1      24.391   2.845  17.342  1.00  0.00    -0.337 N 
ATOM     34  C   UNL     1      24.775   1.795  16.507  1.00  0.00     0.270 C 
ATOM     35  H   UNL     1      23.534   3.417  17.101  1.00  0.00     0.164 HD
ATOM     36  O   UNL     1      25.750   1.074  16.688  1.00  0.00    -0.268 OA
BRANCH  34  37
ATOM     37  C   UNL     1      23.915   1.547  15.325  1.00  0.00     0.123 A 
ATOM     38  C   UNL     1      22.991   0.510  15.161  1.00  0.00     0.058 A 
ATOM     39  N   UNL     1      23.861   2.209  14.156  1.00  0.00    -0.273 N 
ATOM     40  C   UNL     1      22.415   0.583  13.897  1.00  0.00     0.060 A 
ATOM     41  N   UNL     1      23.007   1.657  13.347  1.00  0.00    -0.180 NA
ATOM     42  H   UNL     1      24.444   3.066  13.919  1.00  0.00     0.190 HD
ATOM     43  C   UNL     1      21.396  -0.353  13.370  1.00  0.00     0.069 C 
ENDBRANCH  34  37
ENDBRANCH   8  33
ENDBRANCH   5   8
ENDBRANCH   3   4
ENDBRANCH   2   3
ENDBRANCH   1   2
BRANCH   1  44
ATOM     44  C   UNL     1      25.542   9.674  21.691  1.00  0.00     0.000 C 
BRANCH  44  45
ATOM     45  C   UNL     1      24.371  10.523  21.492  1.00  0.00     0.000 C 
BRANCH  45  46
ATOM     46  C   UNL     1      23.022  10.127  21.919  1.00  0.00     0.000 C 
BRANCH  46  47
ATOM     47  C   UNL     1      22.070   9.673  20.835  1.00  0.00     0.000 C 
BRANCH  47  48
ATOM     48  C   UNL     1      22.638  10.118  19.454  1.00  0.00     0.000 C 
BRANCH  48  49
ATOM     49  C   UNL     1      22.551   9.047  18.450  1.00  0.00     0.000 C 
BRANCH  49  50
ATOM     50  C   UNL     1      23.911   8.334  18.112  1.00  0.00     0.001 C 
BRANCH  50  51
ATOM     51  C   UNL     1      24.707   9.297  17.520  1.00  0.00     0.009 C 
BRANCH  51  52
ATOM     52  C   UNL     1      25.427   9.678  16.228  1.00  0.00    -0.012 C 
BRANCH  52  53
ATOM     53  C   UNL     1      25.501  11.216  16.518  1.00  0.00    -0.018 C 
ATOM     54  C   UNL     1      26.289  11.976  15.509  1.00  0.00     0.033 C 
ATOM     55  C   UNL     1      24.143  11.842  16.706  1.00  0.00     0.033 C 
ATOM     56  C   UNL     1      26.123  11.636  17.775  1.00  0.00     0.033 C 
ATOM     57  C   UNL     1      26.254  13.497  15.670  1.00  0.00     0.101 C 
ATOM     58  C   UNL     1      24.205  13.379  16.773  1.00  0.00     0.101 C 
ATOM     59  C   UNL     1      26.265  13.169  17.930  1.00  0.00     0.101 C 
ATOM     60  C   UNL     1      24.856  13.995  15.577  1.00  0.00     0.051 C 
ATOM     61  C   UNL     1      27.017  13.840  16.893  1.00  0.00     0.051 C 
ATOM     62  C   UNL     1      24.898  13.845  17.999  1.00  0.00     0.051 C 
BRANCH  57  63
ATOM     63  S   UNL     1      27.162  14.275  14.322  1.00  0.00     0.270 S 
ATOM     64  O   UNL     1      26.673  15.644  14.043  1.00  0.00    -0.199 OA
ATOM     65  O   UNL     1      28.588  14.380  14.809  1.00  0.00    -0.199 OA
BRANCH  63  66
ATOM     66  O   UNL     1      27.082  13.311  12.981  1.00  0.00    -0.285 OA
ATOM     67  H   UNL     1      26.342  13.633  12.394  1.00  0.00     0.234 HD
ENDBRANCH  63  66
ENDBRANCH  57  63
BRANCH  58  68
ATOM     68  S   UNL     1      22.530  14.025  16.830  1.00  0.00     0.270 S 
ATOM     69  O   UNL     1      21.845  13.827  15.523  1.00  0.00    -0.199 OA
ATOM     70  O   UNL     1      21.774  13.244  17.876  1.00  0.00    -0.199 OA
BRANCH  68  71
ATOM     71  O   UNL     1      22.494  15.617  17.306  1.00  0.00    -0.285 OA
ATOM     72  H   UNL     1      21.575  15.843  17.553  1.00  0.00     0.234 HD
ENDBRANCH  68  71
ENDBRANCH  58  68
BRANCH  59  73
ATOM     73  S   UNL     1      27.037  13.417  19.508  1.00  0.00     0.270 S 
ATOM     74  O   UNL     1      28.161  14.424  19.385  1.00  0.00    -0.199 OA
ATOM     75  O   UNL     1      26.038  14.009  20.462  1.00  0.00    -0.199 OA
BRANCH  73  76
ATOM     76  O   UNL     1      27.584  11.979  20.139  1.00  0.00    -0.285 OA
ATOM     77  H   UNL     1      26.841  11.370  20.286  1.00  0.00     0.234 HD
ENDBRANCH  73  76
ENDBRANCH  59  73
ENDBRANCH  52  53
BRANCH  52  78
ATOM     78  C   UNL     1      26.769   9.019  16.262  1.00  0.00    -0.018 C 
ATOM     79  C   UNL     1      27.769   9.696  15.308  1.00  0.00     0.033 C 
ATOM     80  C   UNL     1      26.889   7.629  15.788  1.00  0.00     0.033 C 
ATOM     81  C   UNL     1      27.457   9.031  17.599  1.00  0.00     0.033 C 
ATOM     82  C   UNL     1      29.185   9.168  15.427  1.00  0.00     0.101 C 
ATOM     83  C   UNL     1      28.320   7.054  15.895  1.00  0.00     0.101 C 
ATOM     84  C   UNL     1      28.878   8.485  17.615  1.00  0.00     0.101 C 
ATOM     85  C   UNL     1      29.287   7.732  14.977  1.00  0.00     0.051 C 
ATOM     86  C   UNL     1      29.791   9.320  16.771  1.00  0.00     0.051 C 
ATOM     87  C   UNL     1      28.844   7.046  17.273  1.00  0.00     0.051 C 
BRANCH  82  88
ATOM     88  S   UNL     1      30.174  10.118  14.264  1.00  0.00     0.270 S 
ATOM     89  O   UNL     1      30.231   9.325  12.999  1.00  0.00    -0.199 OA
ATOM     90  O   UNL     1      31.562  10.361  14.804  1.00  0.00    -0.199 OA
BRANCH  88  91
ATOM     91  O   UNL     1      29.431  11.579  14.016  1.00  0.00    -0.285 OA
ATOM     92  H   UNL     1      28.532  11.441  13.645  1.00  0.00     0.234 HD
ENDBRANCH  88  91
ENDBRANCH  82  88
BRANCH  83  93
ATOM     93  S   UNL     1      28.169   5.365  15.297  1.00  0.00     0.270 S 
ATOM     94  O   UNL     1      28.119   5.361  13.780  1.00  0.00    -0.199 OA
ATOM     95  O   UNL     1      29.392   4.588  15.668  1.00  0.00    -0.199 OA
BRANCH  93  96
ATOM     96  O   UNL     1      26.753   4.694  15.839  1.00  0.00    -0.285 OA
ATOM     97  H   UNL     1      26.737   4.714  16.821  1.00  0.00     0.234 HD
ENDBRANCH  93  96
ENDBRANCH  83  93
BRANCH  84  98
ATOM     98  S   UNL     1      29.512   8.612  19.288  1.00  0.00     0.270 S 
ATOM     99  O   UNL     1      28.519   9.368  20.098  1.00  0.00    -0.199 OA
ATOM    100  O   UNL     1      30.844   9.297  19.326  1.00  0.00    -0.199 OA
BRANCH  98 101
ATOM    101  O   UNL     1      29.669   7.084  19.957  1.00  0.00    -0.285 OA
ATOM    102  H   UNL     1      29.355   6.369  19.330  1.00  0.00     0.234 HD
ENDBRANCH  98 101
ENDBRANCH  84  98
ENDBRANCH  52  78
BRANCH  52 103
ATOM    103  C   UNL     1      24.494   9.357  15.108  1.00  0.00    -0.018 C 
ATOM    104  C   UNL     1      24.774   9.895  13.734  1.00  0.00     0.033 C 
ATOM    105  C   UNL     1      24.432   7.843  14.917  1.00  0.00     0.033 C 
ATOM    106  C   UNL     1      23.073   9.677  15.299  1.00  0.00     0.033 C 
ATOM    107  C   UNL     1      23.940   9.293  12.632  1.00  0.00     0.101 C 
ATOM    108  C   UNL     1      23.498   7.351  13.817  1.00  0.00     0.101 C 
ATOM    109  C   UNL     1      22.130   9.070  14.247  1.00  0.00     0.101 C 
ATOM    110  C   UNL     1      23.997   7.828  12.506  1.00  0.00     0.051 C 
ATOM    111  C   UNL     1      22.444   9.604  12.839  1.00  0.00     0.051 C 
ATOM    112  C   UNL     1      22.095   7.622  14.152  1.00  0.00     0.051 C 
BRANCH 107 113
ATOM    113  S   UNL     1      24.420  10.140  11.130  1.00  0.00     0.270 S 
ATOM    114  O   UNL     1      25.497   9.351  10.420  1.00  0.00    -0.199 OA
ATOM    115  O   UNL     1      25.024  11.472  11.508  1.00  0.00    -0.199 OA
BRANCH 113 116
ATOM    116  O   UNL     1      23.129  10.351  10.101  1.00  0.00    -0.285 OA
ATOM    117  H   UNL     1      22.422   9.699  10.364  1.00  0.00     0.234 HD
ENDBRANCH 113 116
ENDBRANCH 107 113
BRANCH 108 118
ATOM    118  S   UNL     1      23.624   5.562  13.780  1.00  0.00     0.270 S 
ATOM    119  O   UNL     1      22.239   5.058  13.421  1.00  0.00    -0.199 OA
ATOM    120  O   UNL     1      24.628   5.089  12.788  1.00  0.00    -0.199 OA
BRANCH 118 121
ATOM    121  O   UNL     1      23.969   5.023  15.336  1.00  0.00    -0.285 OA
ATOM    122  H   UNL     1      24.339   4.129  15.308  1.00  0.00     0.234 HD
ENDBRANCH 118 121
ENDBRANCH 108 118
BRANCH 109 123
ATOM    123  S   UNL     1      20.470   9.659  14.604  1.00  0.00     0.270 S 
ATOM    124  O   UNL     1      20.535  10.678  15.711  1.00  0.00    -0.199 OA
ATOM    125  O   UNL     1      20.029  10.377  13.361  1.00  0.00    -0.199 OA
BRANCH 123 126
ATOM    126  O   UNL     1      19.478   8.378  14.969  1.00  0.00    -0.285 OA
ATOM    127  H   UNL     1      18.596   8.541  14.517  1.00  0.00     0.234 HD
ENDBRANCH 123 126
ENDBRANCH 109 123
ENDBRANCH  52 103
ENDBRANCH  51  52
ENDBRANCH  50  51
ENDBRANCH  49  50
ENDBRANCH  48  49
ENDBRANCH  47  48
ENDBRANCH  46  47
ENDBRANCH  45  46
ENDBRANCH  44  45
ENDBRANCH   1  44
TORSDOF 43
ENDMDL
MODEL 3
REMARK VINA RESULT:    -8.705      0.495      5.665
REMARK INTER + INTRA:         -41.807
REMARK INTER:                 -29.033
REMARK INTRA:                 -12.775
REMARK UNBOUND:               -13.511
REMARK SMILES Cc1cc(C(=O)N[C@H](CNC(=O)c2cccc(COc3ccccc3C(N)=O)c2)C(=O)NCCCCCCCCCCCC([C@]23C[C@]4(S(=O)(=O)O)C[C@](S(=O)(=O)O)(C2)C[C@](S(=O)(=O)O)(C3)C4)([C@]23C[C@]4(S(=O)(=O)O)C[C@](S(=O)(=O)O)(C2)C[C@](S(=O)(=O)O)(C3)C4)[C@]23C[C@]4(S(=O)(=O)O)C[C@](S(=O)(=O)O)(C2)C[C@](S(=O)(=O)O)(C3)C4)[nH]n1
REMARK SMILES IDX 35 1 34 2 33 3 32 4 30 5 31 6 8 8 9 9 10 10 12 11 11 12
REMARK SMILES IDX 13 14 14 15 29 16 15 17 17 18 16 19 18 20 19 21 20 22 25 23
REMARK SMILES IDX 21 24 24 25 22 26 23 27 26 28 27 29 28 30 7 33 5 34 6 36
REMARK SMILES IDX 4 37 3 38 111 39 2 40 112 41 1 43 36 44 37 45 38 46 39 47
REMARK SMILES IDX 40 48 41 49 42 50 43 51 44 52 67 53 80 54 87 55 68 56 75 57
REMARK SMILES IDX 82 58 69 59 81 60 74 61 88 62 76 63 77 64 78 65 79 66 83 68
REMARK SMILES IDX 84 69 85 70 86 71 70 73 71 74 72 75 73 76 45 78 46 79 58 80
REMARK SMILES IDX 65 81 47 82 53 83 60 84 52 85 66 86 59 87 48 88 49 89 50 90
REMARK SMILES IDX 51 91 54 93 55 94 56 95 57 96 61 98 62 99 63 100 64 101
REMARK SMILES IDX 89 103 102 104 109 105 90 106 97 107 104 108 91 109 103 110
REMARK SMILES IDX 96 111 110 112 98 113 99 114 100 115 101 116 105 118 106 119
REMARK SMILES IDX 107 120 108 121 92 123 93 124 94 125 95 126
REMARK H PARENT 32 7 10 13 27 31 27 32 7 35 111 42 79 67 86 72 73 77 51 92
REMARK H PARENT 57 97 64 102 101 117 108 122 95 127
REMARK Flexibility Score: inf
ROOT
ATOM      1  C   UNL     1      26.241   8.478  21.462  1.00  0.00     0.002 C 
ENDROOT
BRANCH   1   2
ATOM      2  C   UNL     1      26.257   7.294  20.542  1.00  0.00     0.021 C 
BRANCH   2   3
ATOM      3  C   UNL     1      25.138   6.306  20.742  1.00  0.00     0.116 C 
BRANCH   3   4
ATOM      4  N   UNL     1      25.176   5.064  20.125  1.00  0.00    -0.354 N 
ATOM      5  C   UNL     1      25.161   4.563  18.833  1.00  0.00     0.244 C 
ATOM      6  O   UNL     1      25.103   5.319  17.802  1.00  0.00    -0.273 OA
ATOM      7  H   UNL     1      25.242   4.211  20.871  1.00  0.00     0.163 HD
BRANCH   5   8
ATOM      8  C   UNL     1      25.221   3.141  18.504  1.00  0.00     0.191 C 
BRANCH   8   9
ATOM      9  C   UNL     1      24.624   2.247  19.610  1.00  0.00     0.151 C 
BRANCH   9  10
ATOM     10  N   UNL     1      23.233   2.055  19.426  1.00  0.00    -0.349 N 
ATOM     11  O   UNL     1      22.368   3.658  20.856  1.00  0.00    -0.269 OA
ATOM     12  C   UNL     1      22.177   2.774  20.011  1.00  0.00     0.251 C 
ATOM     13  H   UNL     1      22.965   1.277  18.737  1.00  0.00     0.163 HD
BRANCH  12  14
ATOM     14  C   UNL     1      20.830   2.391  19.523  1.00  0.00     0.040 A 
ATOM     15  C   UNL     1      19.719   2.589  20.296  1.00  0.00     0.014 A 
ATOM     16  C   UNL     1      20.707   1.932  18.248  1.00  0.00     0.021 A 
ATOM     17  C   UNL     1      18.446   2.316  19.770  1.00  0.00     0.001 A 
ATOM     18  C   UNL     1      19.437   1.652  17.702  1.00  0.00    -0.010 A 
ATOM     19  C   UNL     1      18.334   1.854  18.483  1.00  0.00     0.007 A 
BRANCH  18  20
ATOM     20  C   UNL     1      19.323   1.150  16.338  1.00  0.00     0.265 C 
BRANCH  20  21
ATOM     21  O   UNL     1      17.985   1.249  15.891  1.00  0.00    -0.488 OA
BRANCH  21  22
ATOM     22  C   UNL     1      17.753   1.342  14.509  1.00  0.00     0.132 A 
ATOM     23  C   UNL     1      17.136   0.325  13.848  1.00  0.00     0.081 A 
ATOM     24  C   UNL     1      18.169   2.478  13.867  1.00  0.00     0.047 A 
ATOM     25  C   UNL     1      16.911   0.437  12.465  1.00  0.00     0.018 A 
ATOM     26  C   UNL     1      17.951   2.592  12.497  1.00  0.00     0.004 A 
ATOM     27  C   UNL     1      17.334   1.578  11.841  1.00  0.00     0.001 A 
BRANCH  23  28
ATOM     28  C   UNL     1      16.682  -0.900  14.491  1.00  0.00     0.252 C 
ATOM     29  N   UNL     1      17.341  -2.143  14.201  1.00  0.00    -0.365 N 
ATOM     30  O   UNL     1      15.725  -0.886  15.294  1.00  0.00    -0.269 OA
ATOM     31  H   UNL     1      18.148  -2.434  14.768  1.00  0.00     0.159 HD
ATOM     32  H   UNL     1      16.993  -2.736  13.419  1.00  0.00     0.159 HD
ENDBRANCH  23  28
ENDBRANCH  21  22
ENDBRANCH  20  21
ENDBRANCH  18  20
ENDBRANCH  12  14
ENDBRANCH   9  10
ENDBRANCH   8   9
BRANCH   8  33
ATOM     33  N   UNL     1      24.496   2.748  17.308  1.00  0.00    -0.337 N 
ATOM     34  C   UNL     1      24.816   1.679  16.469  1.00  0.00     0.270 C 
ATOM     35  H   UNL     1      23.656   3.351  17.087  1.00  0.00     0.164 HD
ATOM     36  O   UNL     1      25.767   0.921  16.628  1.00  0.00    -0.268 OA
BRANCH  34  37
ATOM     37  C   UNL     1      23.915   1.458  15.313  1.00  0.00     0.123 A 
ATOM     38  C   UNL     1      22.901   0.500  15.208  1.00  0.00     0.058 A 
ATOM     39  N   UNL     1      23.895   2.073  14.117  1.00  0.00    -0.273 N 
ATOM     40  C   UNL     1      22.309   0.571  13.952  1.00  0.00     0.060 A 
ATOM     41  N   UNL     1      22.980   1.565  13.347  1.00  0.00    -0.180 NA
ATOM     42  H   UNL     1      24.545   2.865  13.835  1.00  0.00     0.190 HD
ATOM     43  C   UNL     1      21.202  -0.294  13.483  1.00  0.00     0.069 C 
ENDBRANCH  34  37
ENDBRANCH   8  33
ENDBRANCH   5   8
ENDBRANCH   3   4
ENDBRANCH   2   3
ENDBRANCH   1   2
BRANCH   1  44
ATOM     44  C   UNL     1      25.237   8.345  22.533  1.00  0.00     0.000 C 
BRANCH  44  45
ATOM     45  C   UNL     1      24.417   9.422  23.080  1.00  0.00     0.000 C 
BRANCH  45  46
ATOM     46  C   UNL     1      23.693  10.377  22.231  1.00  0.00     0.000 C 
BRANCH  46  47
ATOM     47  C   UNL     1      22.876   9.798  21.096  1.00  0.00     0.000 C 
BRANCH  47  48
ATOM     48  C   UNL     1      23.572  10.156  19.749  1.00  0.00     0.000 C 
BRANCH  48  49
ATOM     49  C   UNL     1      23.057   9.350  18.631  1.00  0.00     0.000 C 
BRANCH  49  50
ATOM     50  C   UNL     1      24.055   8.275  18.065  1.00  0.00     0.001 C 
BRANCH  50  51
ATOM     51  C   UNL     1      25.075   8.986  17.459  1.00  0.00     0.009 C 
BRANCH  51  52
ATOM     52  C   UNL     1      25.539   9.593  16.136  1.00  0.00    -0.012 C 
BRANCH  52  53
ATOM     53  C   UNL     1      26.942   8.899  16.111  1.00  0.00    -0.018 C 
ATOM     54  C   UNL     1      27.882   9.492  15.120  1.00  0.00     0.033 C 
ATOM     55  C   UNL     1      27.586   8.831  17.472  1.00  0.00     0.033 C 
ATOM     56  C   UNL     1      26.986   7.477  15.765  1.00  0.00     0.033 C 
ATOM     57  C   UNL     1      29.311   8.946  15.173  1.00  0.00     0.101 C 
ATOM     58  C   UNL     1      29.048   8.350  17.411  1.00  0.00     0.101 C 
ATOM     59  C   UNL     1      28.416   6.899  15.644  1.00  0.00     0.101 C 
ATOM     60  C   UNL     1      29.906   9.185  16.516  1.00  0.00     0.051 C 
ATOM     61  C   UNL     1      29.279   7.548  14.684  1.00  0.00     0.051 C 
ATOM     62  C   UNL     1      29.139   6.931  16.989  1.00  0.00     0.051 C 
BRANCH  57  63
ATOM     63  S   UNL     1      30.347   9.829  13.993  1.00  0.00     0.270 S 
ATOM     64  O   UNL     1      29.582  10.260  12.800  1.00  0.00    -0.199 OA
ATOM     65  O   UNL     1      30.815  11.068  14.719  1.00  0.00    -0.199 OA
BRANCH  63  66
ATOM     66  O   UNL     1      31.638   8.881  13.582  1.00  0.00    -0.285 OA
ATOM     67  H   UNL     1      32.102   8.586  14.415  1.00  0.00     0.234 HD
ENDBRANCH  63  66
ENDBRANCH  57  63
BRANCH  58  68
ATOM     68  S   UNL     1      29.765   8.464  19.053  1.00  0.00     0.270 S 
ATOM     69  O   UNL     1      29.633   7.170  19.777  1.00  0.00    -0.199 OA
ATOM     70  O   UNL     1      31.235   8.761  18.891  1.00  0.00    -0.199 OA
BRANCH  68  71
ATOM     71  O   UNL     1      29.119   9.723  19.926  1.00  0.00    -0.285 OA
ATOM     72  H   UNL     1      29.803  10.417  20.017  1.00  0.00     0.234 HD
ENDBRANCH  68  71
ENDBRANCH  58  68
BRANCH  59  73
ATOM     73  S   UNL     1      28.202   5.189  15.222  1.00  0.00     0.270 S 
ATOM     74  O   UNL     1      29.290   4.354  15.863  1.00  0.00    -0.199 OA
ATOM     75  O   UNL     1      26.899   4.697  15.787  1.00  0.00    -0.199 OA
BRANCH  73  76
ATOM     76  O   UNL     1      28.176   4.979  13.573  1.00  0.00    -0.285 OA
ATOM     77  H   UNL     1      27.539   5.589  13.164  1.00  0.00     0.234 HD
ENDBRANCH  73  76
ENDBRANCH  59  73
ENDBRANCH  52  53
BRANCH  52  78
ATOM     78  C   UNL     1      24.622   9.080  15.072  1.00  0.00    -0.018 C 
ATOM     79  C   UNL     1      23.151   9.436  15.356  1.00  0.00     0.033 C 
ATOM     80  C   UNL     1      24.486   7.624  14.893  1.00  0.00     0.033 C 
ATOM     81  C   UNL     1      24.878   9.616  13.690  1.00  0.00     0.033 C 
ATOM     82  C   UNL     1      22.204   9.081  14.227  1.00  0.00     0.101 C 
ATOM     83  C   UNL     1      23.527   7.222  13.748  1.00  0.00     0.101 C 
ATOM     84  C   UNL     1      23.868   9.208  12.627  1.00  0.00     0.101 C 
ATOM     85  C   UNL     1      22.104   7.589  14.028  1.00  0.00     0.051 C 
ATOM     86  C   UNL     1      22.505   9.744  12.937  1.00  0.00     0.051 C 
ATOM     87  C   UNL     1      23.940   7.743  12.432  1.00  0.00     0.051 C 
BRANCH  82  88
ATOM     88  S   UNL     1      20.571   9.615  14.756  1.00  0.00     0.270 S 
ATOM     89  O   UNL     1      19.795   8.377  15.073  1.00  0.00    -0.199 OA
ATOM     90  O   UNL     1      19.885  10.413  13.676  1.00  0.00    -0.199 OA
BRANCH  88  91
ATOM     91  O   UNL     1      20.742  10.568  16.102  1.00  0.00    -0.285 OA
ATOM     92  H   UNL     1      21.686  10.808  16.227  1.00  0.00     0.234 HD
ENDBRANCH  88  91
ENDBRANCH  82  88
BRANCH  83  93
ATOM     93  S   UNL     1      23.582   5.424  13.730  1.00  0.00     0.270 S 
ATOM     94  O   UNL     1      22.205   4.874  13.405  1.00  0.00    -0.199 OA
ATOM     95  O   UNL     1      24.480   4.960  12.628  1.00  0.00    -0.199 OA
BRANCH  93  96
ATOM     96  O   UNL     1      24.000   4.852  15.229  1.00  0.00    -0.285 OA
ATOM     97  H   UNL     1      24.537   4.035  15.129  1.00  0.00     0.234 HD
ENDBRANCH  93  96
ENDBRANCH  83  93
BRANCH  84  98
ATOM     98  S   UNL     1      24.347   9.967  11.073  1.00  0.00     0.270 S 
ATOM     99  O   UNL     1      25.084  11.221  11.386  1.00  0.00    -0.199 OA
ATOM    100  O   UNL     1      23.158  10.263  10.211  1.00  0.00    -0.199 OA
BRANCH  98 101
ATOM    101  O   UNL     1      25.386   8.953  10.238  1.00  0.00    -0.285 OA
ATOM    102  H   UNL     1      24.925   8.117   9.934  1.00  0.00     0.234 HD
ENDBRANCH  98 101
ENDBRANCH  84  98
ENDBRANCH  52  78
BRANCH  52 103
ATOM    103  C   UNL     1      25.638  11.067  16.354  1.00  0.00    -0.018 C 
ATOM    104  C   UNL     1      26.308  11.923  15.317  1.00  0.00     0.033 C 
ATOM    105  C   UNL     1      24.235  11.656  16.484  1.00  0.00     0.033 C 
ATOM    106  C   UNL     1      26.256  11.525  17.604  1.00  0.00     0.033 C 
ATOM    107  C   UNL     1      26.111  13.407  15.495  1.00  0.00     0.101 C 
ATOM    108  C   UNL     1      24.168  13.159  16.734  1.00  0.00     0.101 C 
ATOM    109  C   UNL     1      26.075  13.023  17.900  1.00  0.00     0.101 C 
ATOM    110  C   UNL     1      24.717  13.872  15.556  1.00  0.00     0.051 C 
ATOM    111  C   UNL     1      26.737  13.892  16.819  1.00  0.00     0.051 C 
ATOM    112  C   UNL     1      24.713  13.502  18.053  1.00  0.00     0.051 C 
BRANCH 107 113
ATOM    113  S   UNL     1      27.049  14.190  14.186  1.00  0.00     0.270 S 
ATOM    114  O   UNL     1      28.196  13.295  13.774  1.00  0.00    -0.199 OA
ATOM    115  O   UNL     1      27.654  15.463  14.730  1.00  0.00    -0.199 OA
BRANCH 113 116
ATOM    116  O   UNL     1      26.102  14.512  12.856  1.00  0.00    -0.285 OA
ATOM    117  H   UNL     1      25.876  13.641  12.426  1.00  0.00     0.234 HD
ENDBRANCH 113 116
ENDBRANCH 107 113
BRANCH 108 118
ATOM    118  S   UNL     1      22.433  13.602  16.824  1.00  0.00     0.270 S 
ATOM    119  O   UNL     1      21.832  12.704  17.888  1.00  0.00    -0.199 OA
ATOM    120  O   UNL     1      22.236  15.035  17.173  1.00  0.00    -0.199 OA
BRANCH 118 121
ATOM    121  O   UNL     1      21.708  13.202  15.359  1.00  0.00    -0.285 OA
ATOM    122  H   UNL     1      20.794  12.917  15.503  1.00  0.00     0.234 HD
ENDBRANCH 118 121
ENDBRANCH 108 118
BRANCH 109 123
ATOM    123  S   UNL     1      26.981  13.391  19.408  1.00  0.00     0.270 S 
ATOM    124  O   UNL     1      28.246  14.128  19.055  1.00  0.00    -0.199 OA
ATOM    125  O   UNL     1      26.107  14.344  20.171  1.00  0.00    -0.199 OA
BRANCH 123 126
ATOM    126  O   UNL     1      27.269  11.993  20.255  1.00  0.00    -0.285 OA
ATOM    127  H   UNL     1      26.435  11.777  20.773  1.00  0.00     0.234 HD
ENDBRANCH 123 126
ENDBRANCH 109 123
ENDBRANCH  52 103
ENDBRANCH  51  52
ENDBRANCH  50  51
ENDBRANCH  49  50
ENDBRANCH  48  49
ENDBRANCH  47  48
ENDBRANCH  46  47
ENDBRANCH  45  46
ENDBRANCH  44  45
ENDBRANCH   1  44
TORSDOF 43
ENDMDL
MODEL 4
REMARK VINA RESULT:    -8.667      0.711      3.210
REMARK INTER + INTRA:         -41.685
REMARK INTER:                 -28.115
REMARK INTRA:                 -13.570
REMARK UNBOUND:               -13.511
REMARK SMILES Cc1cc(C(=O)N[C@H](CNC(=O)c2cccc(COc3ccccc3C(N)=O)c2)C(=O)NCCCCCCCCCCCC([C@]23C[C@]4(S(=O)(=O)O)C[C@](S(=O)(=O)O)(C2)C[C@](S(=O)(=O)O)(C3)C4)([C@]23C[C@]4(S(=O)(=O)O)C[C@](S(=O)(=O)O)(C2)C[C@](S(=O)(=O)O)(C3)C4)[C@]23C[C@]4(S(=O)(=O)O)C[C@](S(=O)(=O)O)(C2)C[C@](S(=O)(=O)O)(C3)C4)[nH]n1
REMARK SMILES IDX 35 1 34 2 33 3 32 4 30 5 31 6 8 8 9 9 10 10 12 11 11 12
REMARK SMILES IDX 13 14 14 15 29 16 15 17 17 18 16 19 18 20 19 21 20 22 25 23
REMARK SMILES IDX 21 24 24 25 22 26 23 27 26 28 27 29 28 30 7 33 5 34 6 36
REMARK SMILES IDX 4 37 3 38 111 39 2 40 112 41 1 43 36 44 37 45 38 46 39 47
REMARK SMILES IDX 40 48 41 49 42 50 43 51 44 52 67 53 80 54 87 55 68 56 75 57
REMARK SMILES IDX 82 58 69 59 81 60 74 61 88 62 76 63 77 64 78 65 79 66 83 68
REMARK SMILES IDX 84 69 85 70 86 71 70 73 71 74 72 75 73 76 45 78 46 79 58 80
REMARK SMILES IDX 65 81 47 82 53 83 60 84 52 85 66 86 59 87 48 88 49 89 50 90
REMARK SMILES IDX 51 91 54 93 55 94 56 95 57 96 61 98 62 99 63 100 64 101
REMARK SMILES IDX 89 103 102 104 109 105 90 106 97 107 104 108 91 109 103 110
REMARK SMILES IDX 96 111 110 112 98 113 99 114 100 115 101 116 105 118 106 119
REMARK SMILES IDX 107 120 108 121 92 123 93 124 94 125 95 126
REMARK H PARENT 32 7 10 13 27 31 27 32 7 35 111 42 79 67 86 72 73 77 51 92
REMARK H PARENT 57 97 64 102 101 117 108 122 95 127
REMARK Flexibility Score: inf
ROOT
ATOM      1  C   UNL     1      26.077   8.476  21.096  1.00  0.00     0.002 C 
ENDROOT
BRANCH   1   2
ATOM      2  C   UNL     1      26.284   7.101  20.536  1.00  0.00     0.021 C 
BRANCH   2   3
ATOM      3  C   UNL     1      25.077   6.201  20.573  1.00  0.00     0.116 C 
BRANCH   3   4
ATOM      4  N   UNL     1      25.117   4.944  19.987  1.00  0.00    -0.354 N 
ATOM      5  C   UNL     1      25.109   4.412  18.707  1.00  0.00     0.244 C 
ATOM      6  O   UNL     1      25.059   5.144  17.658  1.00  0.00    -0.273 OA
ATOM      7  H   UNL     1      25.177   4.109  20.754  1.00  0.00     0.163 HD
BRANCH   5   8
ATOM      8  C   UNL     1      25.169   2.983  18.413  1.00  0.00     0.191 C 
BRANCH   8   9
ATOM      9  C   UNL     1      24.544   2.118  19.526  1.00  0.00     0.151 C 
BRANCH   9  10
ATOM     10  N   UNL     1      23.164   1.899  19.299  1.00  0.00    -0.349 N 
ATOM     11  O   UNL     1      22.229   3.592  20.573  1.00  0.00    -0.269 OA
ATOM     12  C   UNL     1      22.079   2.648  19.786  1.00  0.00     0.251 C 
ATOM     13  H   UNL     1      22.930   1.070  18.659  1.00  0.00     0.163 HD
BRANCH  12  14
ATOM     14  C   UNL     1      20.756   2.216  19.272  1.00  0.00     0.040 A 
ATOM     15  C   UNL     1      19.604   2.542  19.935  1.00  0.00     0.014 A 
ATOM     16  C   UNL     1      20.702   1.577  18.073  1.00  0.00     0.021 A 
ATOM     17  C   UNL     1      18.361   2.213  19.371  1.00  0.00     0.001 A 
ATOM     18  C   UNL     1      19.463   1.238  17.492  1.00  0.00    -0.010 A 
ATOM     19  C   UNL     1      18.318   1.568  18.161  1.00  0.00     0.007 A 
BRANCH  18  20
ATOM     20  C   UNL     1      19.423   0.543  16.211  1.00  0.00     0.265 C 
BRANCH  20  21
ATOM     21  O   UNL     1      18.105   0.542  15.696  1.00  0.00    -0.488 OA
BRANCH  21  22
ATOM     22  C   UNL     1      17.908   0.984  14.378  1.00  0.00     0.132 A 
ATOM     23  C   UNL     1      17.287   0.179  13.473  1.00  0.00     0.081 A 
ATOM     24  C   UNL     1      18.359   2.234  14.049  1.00  0.00     0.047 A 
ATOM     25  C   UNL     1      17.097   0.639  12.158  1.00  0.00     0.018 A 
ATOM     26  C   UNL     1      18.176   2.691  12.747  1.00  0.00     0.004 A 
ATOM     27  C   UNL     1      17.556   1.889  11.847  1.00  0.00     0.001 A 
BRANCH  23  28
ATOM     28  C   UNL     1      16.795  -1.157  13.780  1.00  0.00     0.252 C 
ATOM     29  N   UNL     1      17.705  -2.158  14.259  1.00  0.00    -0.365 N 
ATOM     30  O   UNL     1      15.588  -1.445  13.631  1.00  0.00    -0.269 OA
ATOM     31  H   UNL     1      17.871  -2.253  15.270  1.00  0.00     0.159 HD
ATOM     32  H   UNL     1      18.189  -2.778  13.576  1.00  0.00     0.159 HD
ENDBRANCH  23  28
ENDBRANCH  21  22
ENDBRANCH  20  21
ENDBRANCH  18  20
ENDBRANCH  12  14
ENDBRANCH   9  10
ENDBRANCH   8   9
BRANCH   8  33
ATOM     33  N   UNL     1      24.467   2.565  17.211  1.00  0.00    -0.337 N 
ATOM     34  C   UNL     1      24.812   1.489  16.392  1.00  0.00     0.270 C 
ATOM     35  H   UNL     1      23.622   3.155  16.969  1.00  0.00     0.164 HD
ATOM     36  O   UNL     1      25.769   0.745  16.575  1.00  0.00    -0.268 OA
BRANCH  34  37
ATOM     37  C   UNL     1      23.931   1.242  15.225  1.00  0.00     0.123 A 
ATOM     38  C   UNL     1      22.952   0.249  15.106  1.00  0.00     0.058 A 
ATOM     39  N   UNL     1      23.902   1.861  14.032  1.00  0.00    -0.273 N 
ATOM     40  C   UNL     1      22.371   0.305  13.844  1.00  0.00     0.060 A 
ATOM     41  N   UNL     1      23.014   1.324  13.250  1.00  0.00    -0.180 NA
ATOM     42  H   UNL     1      24.528   2.676  13.759  1.00  0.00     0.190 HD
ATOM     43  C   UNL     1      21.300  -0.596  13.360  1.00  0.00     0.069 C 
ENDBRANCH  34  37
ENDBRANCH   8  33
ENDBRANCH   5   8
ENDBRANCH   3   4
ENDBRANCH   2   3
ENDBRANCH   1   2
BRANCH   1  44
ATOM     44  C   UNL     1      25.289   8.464  22.341  1.00  0.00     0.000 C 
BRANCH  44  45
ATOM     45  C   UNL     1      24.216   9.393  22.688  1.00  0.00     0.000 C 
BRANCH  45  46
ATOM     46  C   UNL     1      23.508  10.197  21.683  1.00  0.00     0.000 C 
BRANCH  46  47
ATOM     47  C   UNL     1      22.158   9.685  21.229  1.00  0.00     0.000 C 
BRANCH  47  48
ATOM     48  C   UNL     1      22.369   8.733  20.014  1.00  0.00     0.000 C 
BRANCH  48  49
ATOM     49  C   UNL     1      23.181   9.358  18.957  1.00  0.00     0.000 C 
BRANCH  49  50
ATOM     50  C   UNL     1      23.960   8.355  18.030  1.00  0.00     0.001 C 
BRANCH  50  51
ATOM     51  C   UNL     1      25.031   9.066  17.519  1.00  0.00     0.009 C 
BRANCH  51  52
ATOM     52  C   UNL     1      25.716   9.502  16.226  1.00  0.00    -0.012 C 
BRANCH  52  53
ATOM     53  C   UNL     1      25.548  11.043  16.453  1.00  0.00    -0.018 C 
ATOM     54  C   UNL     1      25.905  11.485  17.829  1.00  0.00     0.033 C 
ATOM     55  C   UNL     1      26.281  11.869  15.427  1.00  0.00     0.033 C 
ATOM     56  C   UNL     1      24.207  11.606  16.286  1.00  0.00     0.033 C 
ATOM     57  C   UNL     1      25.904  13.000  18.045  1.00  0.00     0.101 C 
ATOM     58  C   UNL     1      26.295  13.369  15.777  1.00  0.00     0.101 C 
ATOM     59  C   UNL     1      24.102  13.108  16.645  1.00  0.00     0.101 C 
ATOM     60  C   UNL     1      26.873  13.654  17.125  1.00  0.00     0.051 C 
ATOM     61  C   UNL     1      24.497  13.463  17.989  1.00  0.00     0.051 C 
ATOM     62  C   UNL     1      24.937  13.962  15.693  1.00  0.00     0.051 C 
BRANCH  57  63
ATOM     63  S   UNL     1      26.453  13.379  19.717  1.00  0.00     0.270 S 
ATOM     64  O   UNL     1      27.339  14.566  19.754  1.00  0.00    -0.199 OA
ATOM     65  O   UNL     1      25.196  13.712  20.486  1.00  0.00    -0.199 OA
BRANCH  63  66
ATOM     66  O   UNL     1      27.189  12.048  20.366  1.00  0.00    -0.285 OA
ATOM     67  H   UNL     1      27.015  11.262  19.777  1.00  0.00     0.234 HD
ENDBRANCH  63  66
ENDBRANCH  57  63
BRANCH  58  68
ATOM     68  S   UNL     1      27.327  14.232  14.588  1.00  0.00     0.270 S 
ATOM     69  O   UNL     1      28.691  14.456  15.140  1.00  0.00    -0.199 OA
ATOM     70  O   UNL     1      27.455  13.350  13.370  1.00  0.00    -0.199 OA
BRANCH  68  71
ATOM     71  O   UNL     1      26.631  15.651  14.075  1.00  0.00    -0.285 OA
ATOM     72  H   UNL     1      25.691  15.649  14.346  1.00  0.00     0.234 HD
ENDBRANCH  68  71
ENDBRANCH  58  68
BRANCH  59  73
ATOM     73  S   UNL     1      22.406  13.545  16.366  1.00  0.00     0.270 S 
ATOM     74  O   UNL     1      21.554  13.093  17.533  1.00  0.00    -0.199 OA
ATOM     75  O   UNL     1      22.283  15.042  16.304  1.00  0.00    -0.199 OA
BRANCH  73  76
ATOM     76  O   UNL     1      21.852  12.908  14.934  1.00  0.00    -0.285 OA
ATOM     77  H   UNL     1      20.937  13.193  14.769  1.00  0.00     0.234 HD
ENDBRANCH  73  76
ENDBRANCH  59  73
ENDBRANCH  52  53
BRANCH  52  78
ATOM     78  C   UNL     1      27.141   9.058  16.312  1.00  0.00    -0.018 C 
ATOM     79  C   UNL     1      27.307   7.574  15.940  1.00  0.00     0.033 C 
ATOM     80  C   UNL     1      27.804   9.051  17.628  1.00  0.00     0.033 C 
ATOM     81  C   UNL     1      28.096   9.782  15.403  1.00  0.00     0.033 C 
ATOM     82  C   UNL     1      28.751   7.119  15.855  1.00  0.00     0.101 C 
ATOM     83  C   UNL     1      29.281   8.594  17.581  1.00  0.00     0.101 C 
ATOM     84  C   UNL     1      29.521   9.248  15.383  1.00  0.00     0.101 C 
ATOM     85  C   UNL     1      29.430   7.155  17.202  1.00  0.00     0.051 C 
ATOM     86  C   UNL     1      29.570   7.847  14.857  1.00  0.00     0.051 C 
ATOM     87  C   UNL     1      30.126   9.440  16.720  1.00  0.00     0.051 C 
BRANCH  82  88
ATOM     88  S   UNL     1      28.704   5.387  15.376  1.00  0.00     0.270 S 
ATOM     89  O   UNL     1      27.538   4.776  16.083  1.00  0.00    -0.199 OA
ATOM     90  O   UNL     1      29.985   4.685  15.752  1.00  0.00    -0.199 OA
BRANCH  88  91
ATOM     91  O   UNL     1      28.509   5.304  13.731  1.00  0.00    -0.285 OA
ATOM     92  H   UNL     1      28.810   6.141  13.314  1.00  0.00     0.234 HD
ENDBRANCH  88  91
ENDBRANCH  82  88
BRANCH  83  93
ATOM     93  S   UNL     1      29.841   8.718  19.286  1.00  0.00     0.270 S 
ATOM     94  O   UNL     1      31.317   9.070  19.315  1.00  0.00    -0.199 OA
ATOM     95  O   UNL     1      29.136   9.848  19.966  1.00  0.00    -0.199 OA
BRANCH  93  96
ATOM     96  O   UNL     1      29.667   7.256  20.050  1.00  0.00    -0.285 OA
ATOM     97  H   UNL     1      29.503   7.406  21.008  1.00  0.00     0.234 HD
ENDBRANCH  93  96
ENDBRANCH  83  93
BRANCH  84  98
ATOM     98  S   UNL     1      30.477  10.233  14.228  1.00  0.00     0.270 S 
ATOM     99  O   UNL     1      30.191   9.734  12.856  1.00  0.00    -0.199 OA
ATOM    100  O   UNL     1      31.945  10.156  14.515  1.00  0.00    -0.199 OA
BRANCH  98 101
ATOM    101  O   UNL     1      29.992  11.835  14.306  1.00  0.00    -0.285 OA
ATOM    102  H   UNL     1      28.998  11.919  14.388  1.00  0.00     0.234 HD
ENDBRANCH  98 101
ENDBRANCH  84  98
ENDBRANCH  52  78
BRANCH  52 103
ATOM    103  C   UNL     1      24.871   8.998  15.103  1.00  0.00    -0.018 C 
ATOM    104  C   UNL     1      24.838   7.526  14.806  1.00  0.00     0.033 C 
ATOM    105  C   UNL     1      23.411   9.365  15.362  1.00  0.00     0.033 C 
ATOM    106  C   UNL     1      25.083   9.594  13.777  1.00  0.00     0.033 C 
ATOM    107  C   UNL     1      23.756   7.094  13.849  1.00  0.00     0.101 C 
ATOM    108  C   UNL     1      22.419   8.936  14.287  1.00  0.00     0.101 C 
ATOM    109  C   UNL     1      24.005   9.247  12.737  1.00  0.00     0.101 C 
ATOM    110  C   UNL     1      22.380   7.456  14.224  1.00  0.00     0.051 C 
ATOM    111  C   UNL     1      23.957   7.735  12.461  1.00  0.00     0.051 C 
ATOM    112  C   UNL     1      22.646   9.665  13.034  1.00  0.00     0.051 C 
BRANCH 107 113
ATOM    113  S   UNL     1      23.974   5.332  13.619  1.00  0.00     0.270 S 
ATOM    114  O   UNL     1      24.690   5.072  12.314  1.00  0.00    -0.199 OA
ATOM    115  O   UNL     1      22.609   4.694  13.510  1.00  0.00    -0.199 OA
BRANCH 113 116
ATOM    116  O   UNL     1      24.842   4.650  14.865  1.00  0.00    -0.285 OA
ATOM    117  H   UNL     1      25.419   5.363  15.258  1.00  0.00     0.234 HD
ENDBRANCH 113 116
ENDBRANCH 107 113
BRANCH 108 118
ATOM    118  S   UNL     1      20.792   9.457  14.833  1.00  0.00     0.270 S 
ATOM    119  O   UNL     1      20.293  10.426  13.778  1.00  0.00    -0.199 OA
ATOM    120  O   UNL     1      19.854   8.311  14.980  1.00  0.00    -0.199 OA
BRANCH 118 121
ATOM    121  O   UNL     1      20.966  10.319  16.268  1.00  0.00    -0.285 OA
ATOM    122  H   UNL     1      20.129  10.739  16.511  1.00  0.00     0.234 HD
ENDBRANCH 118 121
ENDBRANCH 108 118
BRANCH 109 123
ATOM    123  S   UNL     1      24.501   9.986  11.176  1.00  0.00     0.270 S 
ATOM    124  O   UNL     1      23.930   9.174  10.043  1.00  0.00    -0.199 OA
ATOM    125  O   UNL     1      23.831  11.330  11.145  1.00  0.00    -0.199 OA
BRANCH 123 126
ATOM    126  O   UNL     1      26.155  10.112  11.105  1.00  0.00    -0.285 OA
ATOM    127  H   UNL     1      26.440  10.747  11.829  1.00  0.00     0.234 HD
ENDBRANCH 123 126
ENDBRANCH 109 123
ENDBRANCH  52 103
ENDBRANCH  51  52
ENDBRANCH  50  51
ENDBRANCH  49  50
ENDBRANCH  48  49
ENDBRANCH  47  48
ENDBRANCH  46  47
ENDBRANCH  45  46
ENDBRANCH  44  45
ENDBRANCH   1  44
TORSDOF 43
ENDMDL
MODEL 5
REMARK VINA RESULT:    -8.664      0.484      5.803
REMARK INTER + INTRA:         -41.674
REMARK INTER:                 -28.471
REMARK INTRA:                 -13.202
REMARK UNBOUND:               -13.511
REMARK SMILES Cc1cc(C(=O)N[C@H](CNC(=O)c2cccc(COc3ccccc3C(N)=O)c2)C(=O)NCCCCCCCCCCCC([C@]23C[C@]4(S(=O)(=O)O)C[C@](S(=O)(=O)O)(C2)C[C@](S(=O)(=O)O)(C3)C4)([C@]23C[C@]4(S(=O)(=O)O)C[C@](S(=O)(=O)O)(C2)C[C@](S(=O)(=O)O)(C3)C4)[C@]23C[C@]4(S(=O)(=O)O)C[C@](S(=O)(=O)O)(C2)C[C@](S(=O)(=O)O)(C3)C4)[nH]n1
REMARK SMILES IDX 35 1 34 2 33 3 32 4 30 5 31 6 8 8 9 9 10 10 12 11 11 12
REMARK SMILES IDX 13 14 14 15 29 16 15 17 17 18 16 19 18 20 19 21 20 22 25 23
REMARK SMILES IDX 21 24 24 25 22 26 23 27 26 28 27 29 28 30 7 33 5 34 6 36
REMARK SMILES IDX 4 37 3 38 111 39 2 40 112 41 1 43 36 44 37 45 38 46 39 47
REMARK SMILES IDX 40 48 41 49 42 50 43 51 44 52 67 53 80 54 87 55 68 56 75 57
REMARK SMILES IDX 82 58 69 59 81 60 74 61 88 62 76 63 77 64 78 65 79 66 83 68
REMARK SMILES IDX 84 69 85 70 86 71 70 73 71 74 72 75 73 76 45 78 46 79 58 80
REMARK SMILES IDX 65 81 47 82 53 83 60 84 52 85 66 86 59 87 48 88 49 89 50 90
REMARK SMILES IDX 51 91 54 93 55 94 56 95 57 96 61 98 62 99 63 100 64 101
REMARK SMILES IDX 89 103 102 104 109 105 90 106 97 107 104 108 91 109 103 110
REMARK SMILES IDX 96 111 110 112 98 113 99 114 100 115 101 116 105 118 106 119
REMARK SMILES IDX 107 120 108 121 92 123 93 124 94 125 95 126
REMARK H PARENT 32 7 10 13 27 31 27 32 7 35 111 42 79 67 86 72 73 77 51 92
REMARK H PARENT 57 97 64 102 101 117 108 122 95 127
REMARK Flexibility Score: inf
ROOT
ATOM      1  C   UNL     1      26.276   8.412  21.466  1.00  0.00     0.002 C 
ENDROOT
BRANCH   1   2
ATOM      2  C   UNL     1      26.262   7.240  20.530  1.00  0.00     0.021 C 
BRANCH   2   3
ATOM      3  C   UNL     1      25.136   6.262  20.737  1.00  0.00     0.116 C 
BRANCH   3   4
ATOM      4  N   UNL     1      25.164   5.016  20.128  1.00  0.00    -0.354 N 
ATOM      5  C   UNL     1      25.165   4.508  18.839  1.00  0.00     0.244 C 
ATOM      6  O   UNL     1      25.141   5.259  17.803  1.00  0.00    -0.273 OA
ATOM      7  H   UNL     1      25.199   4.167  20.880  1.00  0.00     0.163 HD
BRANCH   5   8
ATOM      8  C   UNL     1      25.206   3.083  18.519  1.00  0.00     0.191 C 
BRANCH   8   9
ATOM      9  C   UNL     1      24.579   2.206  19.622  1.00  0.00     0.151 C 
BRANCH   9  10
ATOM     10  N   UNL     1      23.192   2.021  19.411  1.00  0.00    -0.349 N 
ATOM     11  O   UNL     1      22.305   3.562  20.894  1.00  0.00    -0.269 OA
ATOM     12  C   UNL     1      22.127   2.714  20.010  1.00  0.00     0.251 C 
ATOM     13  H   UNL     1      22.934   1.271  18.687  1.00  0.00     0.163 HD
BRANCH  12  14
ATOM     14  C   UNL     1      20.787   2.351  19.488  1.00  0.00     0.040 A 
ATOM     15  C   UNL     1      19.657   2.595  20.220  1.00  0.00     0.014 A 
ATOM     16  C   UNL     1      20.694   1.862  18.222  1.00  0.00     0.021 A 
ATOM     17  C   UNL     1      18.396   2.339  19.659  1.00  0.00     0.001 A 
ATOM     18  C   UNL     1      19.436   1.599  17.642  1.00  0.00    -0.010 A 
ATOM     19  C   UNL     1      18.313   1.847  18.381  1.00  0.00     0.007 A 
BRANCH  18  20
ATOM     20  C   UNL     1      19.353   1.065  16.288  1.00  0.00     0.265 C 
BRANCH  20  21
ATOM     21  O   UNL     1      18.016   1.103  15.827  1.00  0.00    -0.488 OA
BRANCH  21  22
ATOM     22  C   UNL     1      17.794   1.242  14.448  1.00  0.00     0.132 A 
ATOM     23  C   UNL     1      17.132   0.270  13.761  1.00  0.00     0.081 A 
ATOM     24  C   UNL     1      18.263   2.372  13.835  1.00  0.00     0.047 A 
ATOM     25  C   UNL     1      16.918   0.426  12.381  1.00  0.00     0.018 A 
ATOM     26  C   UNL     1      18.055   2.529  12.467  1.00  0.00     0.004 A 
ATOM     27  C   UNL     1      17.395   1.562  11.785  1.00  0.00     0.001 A 
BRANCH  23  28
ATOM     28  C   UNL     1      16.621  -0.949  14.372  1.00  0.00     0.252 C 
ATOM     29  N   UNL     1      17.108  -2.226  13.932  1.00  0.00    -0.365 N 
ATOM     30  O   UNL     1      15.761  -0.899  15.278  1.00  0.00    -0.269 OA
ATOM     31  H   UNL     1      17.935  -2.637  14.384  1.00  0.00     0.159 HD
ATOM     32  H   UNL     1      16.617  -2.720  13.158  1.00  0.00     0.159 HD
ENDBRANCH  23  28
ENDBRANCH  21  22
ENDBRANCH  20  21
ENDBRANCH  18  20
ENDBRANCH  12  14
ENDBRANCH   9  10
ENDBRANCH   8   9
BRANCH   8  33
ATOM     33  N   UNL     1      24.491   2.694  17.316  1.00  0.00    -0.337 N 
ATOM     34  C   UNL     1      24.818   1.630  16.475  1.00  0.00     0.270 C 
ATOM     35  H   UNL     1      23.651   3.298  17.091  1.00  0.00     0.164 HD
ATOM     36  O   UNL     1      25.768   0.872  16.637  1.00  0.00    -0.268 OA
BRANCH  34  37
ATOM     37  C   UNL     1      23.926   1.413  15.311  1.00  0.00     0.123 A 
ATOM     38  C   UNL     1      22.925   0.443  15.187  1.00  0.00     0.058 A 
ATOM     39  N   UNL     1      23.904   2.045  14.124  1.00  0.00    -0.273 N 
ATOM     40  C   UNL     1      22.339   0.524  13.929  1.00  0.00     0.060 A 
ATOM     41  N   UNL     1      23.000   1.535  13.341  1.00  0.00    -0.180 NA
ATOM     42  H   UNL     1      24.545   2.849  13.856  1.00  0.00     0.190 HD
ATOM     43  C   UNL     1      21.246  -0.349  13.441  1.00  0.00     0.069 C 
ENDBRANCH  34  37
ENDBRANCH   8  33
ENDBRANCH   5   8
ENDBRANCH   3   4
ENDBRANCH   2   3
ENDBRANCH   1   2
BRANCH   1  44
ATOM     44  C   UNL     1      25.253   8.301  22.522  1.00  0.00     0.000 C 
BRANCH  44  45
ATOM     45  C   UNL     1      24.485   9.404  23.093  1.00  0.00     0.000 C 
BRANCH  45  46
ATOM     46  C   UNL     1      23.845  10.436  22.266  1.00  0.00     0.000 C 
BRANCH  46  47
ATOM     47  C   UNL     1      22.934   9.954  21.158  1.00  0.00     0.000 C 
BRANCH  47  48
ATOM     48  C   UNL     1      23.637  10.208  19.791  1.00  0.00     0.000 C 
BRANCH  48  49
ATOM     49  C   UNL     1      23.060   9.390  18.713  1.00  0.00     0.000 C 
BRANCH  49  50
ATOM     50  C   UNL     1      24.024   8.306  18.105  1.00  0.00     0.001 C 
BRANCH  50  51
ATOM     51  C   UNL     1      25.042   9.009  17.486  1.00  0.00     0.009 C 
BRANCH  51  52
ATOM     52  C   UNL     1      25.482   9.634  16.164  1.00  0.00    -0.012 C 
BRANCH  52  53
ATOM     53  C   UNL     1      26.906   8.985  16.131  1.00  0.00    -0.018 C 
ATOM     54  C   UNL     1      27.825   9.613  15.143  1.00  0.00     0.033 C 
ATOM     55  C   UNL     1      27.555   8.928  17.490  1.00  0.00     0.033 C 
ATOM     56  C   UNL     1      26.993   7.567  15.776  1.00  0.00     0.033 C 
ATOM     57  C   UNL     1      29.270   9.111  15.189  1.00  0.00     0.101 C 
ATOM     58  C   UNL     1      29.031   8.493  17.424  1.00  0.00     0.101 C 
ATOM     59  C   UNL     1      28.440   7.034  15.649  1.00  0.00     0.101 C 
ATOM     60  C   UNL     1      29.860   9.360  16.532  1.00  0.00     0.051 C 
ATOM     61  C   UNL     1      29.281   7.716  14.691  1.00  0.00     0.051 C 
ATOM     62  C   UNL     1      29.165   7.080  16.992  1.00  0.00     0.051 C 
BRANCH  57  63
ATOM     63  S   UNL     1      30.275  10.033  14.013  1.00  0.00     0.270 S 
ATOM     64  O   UNL     1      29.481  10.500  12.852  1.00  0.00    -0.199 OA
ATOM     65  O   UNL     1      30.759  11.250  14.766  1.00  0.00    -0.199 OA
BRANCH  63  66
ATOM     66  O   UNL     1      31.557   9.102  13.541  1.00  0.00    -0.285 OA
ATOM     67  H   UNL     1      32.161   8.960  14.323  1.00  0.00     0.234 HD
ENDBRANCH  63  66
ENDBRANCH  57  63
BRANCH  58  68
ATOM     68  S   UNL     1      29.747   8.619  19.065  1.00  0.00     0.270 S 
ATOM     69  O   UNL     1      29.656   7.318  19.781  1.00  0.00    -0.199 OA
ATOM     70  O   UNL     1      31.208   8.961  18.902  1.00  0.00    -0.199 OA
BRANCH  68  71
ATOM     71  O   UNL     1      29.067   9.853  19.947  1.00  0.00    -0.285 OA
ATOM     72  H   UNL     1      29.729  10.567  20.040  1.00  0.00     0.234 HD
ENDBRANCH  68  71
ENDBRANCH  58  68
BRANCH  59  73
ATOM     73  S   UNL     1      28.279   5.321  15.216  1.00  0.00     0.270 S 
ATOM     74  O   UNL     1      29.384   4.514  15.862  1.00  0.00    -0.199 OA
ATOM     75  O   UNL     1      26.985   4.789  15.767  1.00  0.00    -0.199 OA
BRANCH  73  76
ATOM     76  O   UNL     1      28.273   5.120  13.566  1.00  0.00    -0.285 OA
ATOM     77  H   UNL     1      27.622   5.713  13.155  1.00  0.00     0.234 HD
ENDBRANCH  73  76
ENDBRANCH  59  73
ENDBRANCH  52  53
BRANCH  52  78
ATOM     78  C   UNL     1      24.577   9.097  15.102  1.00  0.00    -0.018 C 
ATOM     79  C   UNL     1      23.100   9.431  15.377  1.00  0.00     0.033 C 
ATOM     80  C   UNL     1      24.466   7.638  14.935  1.00  0.00     0.033 C 
ATOM     81  C   UNL     1      24.830   9.625  13.716  1.00  0.00     0.033 C 
ATOM     82  C   UNL     1      22.163   9.051  14.248  1.00  0.00     0.101 C 
ATOM     83  C   UNL     1      23.518   7.210  13.791  1.00  0.00     0.101 C 
ATOM     84  C   UNL     1      23.831   9.190  12.653  1.00  0.00     0.101 C 
ATOM     85  C   UNL     1      22.089   7.555  14.062  1.00  0.00     0.051 C 
ATOM     86  C   UNL     1      22.458   9.707  12.952  1.00  0.00     0.051 C 
ATOM     87  C   UNL     1      23.928   7.725  12.471  1.00  0.00     0.051 C 
BRANCH  82  88
ATOM     88  S   UNL     1      20.520   9.562  14.766  1.00  0.00     0.270 S 
ATOM     89  O   UNL     1      19.808   8.329  15.220  1.00  0.00    -0.199 OA
ATOM     90  O   UNL     1      19.774  10.222  13.633  1.00  0.00    -0.199 OA
BRANCH  88  91
ATOM     91  O   UNL     1      20.677  10.647  16.010  1.00  0.00    -0.285 OA
ATOM     92  H   UNL     1      21.343  11.330  15.778  1.00  0.00     0.234 HD
ENDBRANCH  88  91
ENDBRANCH  82  88
BRANCH  83  93
ATOM     93  S   UNL     1      23.603   5.413  13.789  1.00  0.00     0.270 S 
ATOM     94  O   UNL     1      22.239   4.837  13.454  1.00  0.00    -0.199 OA
ATOM     95  O   UNL     1      24.520   4.953  12.701  1.00  0.00    -0.199 OA
BRANCH  93  96
ATOM     96  O   UNL     1      24.015   4.861  15.297  1.00  0.00    -0.285 OA
ATOM     97  H   UNL     1      24.566   4.051  15.210  1.00  0.00     0.234 HD
ENDBRANCH  93  96
ENDBRANCH  83  93
BRANCH  84  98
ATOM     98  S   UNL     1      24.303   9.944  11.094  1.00  0.00     0.270 S 
ATOM     99  O   UNL     1      24.546  11.391  11.341  1.00  0.00    -0.199 OA
ATOM    100  O   UNL     1      23.246   9.764  10.048  1.00  0.00    -0.199 OA
BRANCH  98 101
ATOM    101  O   UNL     1      25.733   9.267  10.542  1.00  0.00    -0.285 OA
ATOM    102  H   UNL     1      25.616   8.306  10.288  1.00  0.00     0.234 HD
ENDBRANCH  98 101
ENDBRANCH  84  98
ENDBRANCH  52  78
BRANCH  52 103
ATOM    103  C   UNL     1      25.536  11.110  16.386  1.00  0.00    -0.018 C 
ATOM    104  C   UNL     1      24.256  11.885  16.517  1.00  0.00     0.033 C 
ATOM    105  C   UNL     1      26.290  11.401  17.683  1.00  0.00     0.033 C 
ATOM    106  C   UNL     1      26.305  11.910  15.425  1.00  0.00     0.033 C 
ATOM    107  C   UNL     1      24.417  13.300  17.011  1.00  0.00     0.101 C 
ATOM    108  C   UNL     1      26.450  12.874  18.040  1.00  0.00     0.101 C 
ATOM    109  C   UNL     1      26.561  13.363  15.858  1.00  0.00     0.101 C 
ATOM    110  C   UNL     1      25.113  13.460  18.297  1.00  0.00     0.051 C 
ATOM    111  C   UNL     1      25.244  14.141  16.018  1.00  0.00     0.051 C 
ATOM    112  C   UNL     1      27.321  13.561  17.079  1.00  0.00     0.051 C 
BRANCH 107 113
ATOM    113  S   UNL     1      22.774  14.011  17.016  1.00  0.00     0.270 S 
ATOM    114  O   UNL     1      21.779  12.996  17.531  1.00  0.00    -0.199 OA
ATOM    115  O   UNL     1      22.388  14.326  15.590  1.00  0.00    -0.199 OA
BRANCH 113 116
ATOM    116  O   UNL     1      22.697  15.380  17.960  1.00  0.00    -0.285 OA
ATOM    117  H   UNL     1      22.777  15.096  18.913  1.00  0.00     0.234 HD
ENDBRANCH 113 116
ENDBRANCH 107 113
BRANCH 108 118
ATOM    118  S   UNL     1      27.337  12.946  19.596  1.00  0.00     0.270 S 
ATOM    119  O   UNL     1      28.794  12.704  19.254  1.00  0.00    -0.199 OA
ATOM    120  O   UNL     1      27.168  14.257  20.280  1.00  0.00    -0.199 OA
BRANCH 118 121
ATOM    121  O   UNL     1      26.825  11.662  20.557  1.00  0.00    -0.285 OA
ATOM    122  H   UNL     1      26.726  10.861  20.023  1.00  0.00     0.234 HD
ENDBRANCH 118 121
ENDBRANCH 108 118
BRANCH 109 123
ATOM    123  S   UNL     1      27.422  14.186  14.511  1.00  0.00     0.270 S 
ATOM    124  O   UNL     1      26.420  14.596  13.463  1.00  0.00    -0.199 OA
ATOM    125  O   UNL     1      27.982  15.444  15.111  1.00  0.00    -0.199 OA
BRANCH 123 126
ATOM    126  O   UNL     1      28.612  13.198  13.909  1.00  0.00    -0.285 OA
ATOM    127  H   UNL     1      29.410  13.285  14.513  1.00  0.00     0.234 HD
ENDBRANCH 123 126
ENDBRANCH 109 123
ENDBRANCH  52 103
ENDBRANCH  51  52
ENDBRANCH  50  51
ENDBRANCH  49  50
ENDBRANCH  48  49
ENDBRANCH  47  48
ENDBRANCH  46  47
ENDBRANCH  45  46
ENDBRANCH  44  45
ENDBRANCH   1  44
TORSDOF 43
ENDMDL
MODEL 6
REMARK VINA RESULT:    -8.653      0.326      3.053
REMARK INTER + INTRA:         -41.640
REMARK INTER:                 -29.000
REMARK INTRA:                 -12.640
REMARK UNBOUND:               -13.511
REMARK SMILES Cc1cc(C(=O)N[C@H](CNC(=O)c2cccc(COc3ccccc3C(N)=O)c2)C(=O)NCCCCCCCCCCCC([C@]23C[C@]4(S(=O)(=O)O)C[C@](S(=O)(=O)O)(C2)C[C@](S(=O)(=O)O)(C3)C4)([C@]23C[C@]4(S(=O)(=O)O)C[C@](S(=O)(=O)O)(C2)C[C@](S(=O)(=O)O)(C3)C4)[C@]23C[C@]4(S(=O)(=O)O)C[C@](S(=O)(=O)O)(C2)C[C@](S(=O)(=O)O)(C3)C4)[nH]n1
REMARK SMILES IDX 35 1 34 2 33 3 32 4 30 5 31 6 8 8 9 9 10 10 12 11 11 12
REMARK SMILES IDX 13 14 14 15 29 16 15 17 17 18 16 19 18 20 19 21 20 22 25 23
REMARK SMILES IDX 21 24 24 25 22 26 23 27 26 28 27 29 28 30 7 33 5 34 6 36
REMARK SMILES IDX 4 37 3 38 111 39 2 40 112 41 1 43 36 44 37 45 38 46 39 47
REMARK SMILES IDX 40 48 41 49 42 50 43 51 44 52 67 53 80 54 87 55 68 56 75 57
REMARK SMILES IDX 82 58 69 59 81 60 74 61 88 62 76 63 77 64 78 65 79 66 83 68
REMARK SMILES IDX 84 69 85 70 86 71 70 73 71 74 72 75 73 76 45 78 46 79 58 80
REMARK SMILES IDX 65 81 47 82 53 83 60 84 52 85 66 86 59 87 48 88 49 89 50 90
REMARK SMILES IDX 51 91 54 93 55 94 56 95 57 96 61 98 62 99 63 100 64 101
REMARK SMILES IDX 89 103 102 104 109 105 90 106 97 107 104 108 91 109 103 110
REMARK SMILES IDX 96 111 110 112 98 113 99 114 100 115 101 116 105 118 106 119
REMARK SMILES IDX 107 120 108 121 92 123 93 124 94 125 95 126
REMARK H PARENT 32 7 10 13 27 31 27 32 7 35 111 42 79 67 86 72 73 77 51 92
REMARK H PARENT 57 97 64 102 101 117 108 122 95 127
REMARK Flexibility Score: inf
ROOT
ATOM      1  C   UNL     1      26.057   8.582  21.033  1.00  0.00     0.002 C 
ENDROOT
BRANCH   1   2
ATOM      2  C   UNL     1      26.313   7.177  20.574  1.00  0.00     0.021 C 
BRANCH   2   3
ATOM      3  C   UNL     1      25.156   6.226  20.731  1.00  0.00     0.116 C 
BRANCH   3   4
ATOM      4  N   UNL     1      25.177   4.983  20.117  1.00  0.00    -0.354 N 
ATOM      5  C   UNL     1      25.155   4.479  18.826  1.00  0.00     0.244 C 
ATOM      6  O   UNL     1      25.107   5.234  17.793  1.00  0.00    -0.273 OA
ATOM      7  H   UNL     1      25.231   4.131  20.865  1.00  0.00     0.163 HD
BRANCH   5   8
ATOM      8  C   UNL     1      25.197   3.056  18.500  1.00  0.00     0.191 C 
BRANCH   8   9
ATOM      9  C   UNL     1      24.562   2.174  19.596  1.00  0.00     0.151 C 
BRANCH   9  10
ATOM     10  N   UNL     1      23.183   1.964  19.357  1.00  0.00    -0.349 N 
ATOM     11  O   UNL     1      22.242   3.569  20.736  1.00  0.00    -0.269 OA
ATOM     12  C   UNL     1      22.095   2.676  19.892  1.00  0.00     0.251 C 
ATOM     13  H   UNL     1      22.952   1.176  18.666  1.00  0.00     0.163 HD
BRANCH  12  14
ATOM     14  C   UNL     1      20.774   2.272  19.354  1.00  0.00     0.040 A 
ATOM     15  C   UNL     1      19.629   2.474  20.075  1.00  0.00     0.014 A 
ATOM     16  C   UNL     1      20.710   1.789  18.084  1.00  0.00     0.021 A 
ATOM     17  C   UNL     1      18.383   2.180  19.499  1.00  0.00     0.001 A 
ATOM     18  C   UNL     1      19.467   1.488  17.489  1.00  0.00    -0.010 A 
ATOM     19  C   UNL     1      18.329   1.694  18.217  1.00  0.00     0.007 A 
BRANCH  18  20
ATOM     20  C   UNL     1      19.416   0.961  16.131  1.00  0.00     0.265 C 
BRANCH  20  21
ATOM     21  O   UNL     1      18.081   0.944  15.662  1.00  0.00    -0.488 OA
BRANCH  21  22
ATOM     22  C   UNL     1      17.859   1.124  14.287  1.00  0.00     0.132 A 
ATOM     23  C   UNL     1      17.335   0.113  13.541  1.00  0.00     0.081 A 
ATOM     24  C   UNL     1      18.187   2.336  13.741  1.00  0.00     0.047 A 
ATOM     25  C   UNL     1      17.119   0.312  12.167  1.00  0.00     0.018 A 
ATOM     26  C   UNL     1      17.977   2.535  12.379  1.00  0.00     0.004 A 
ATOM     27  C   UNL     1      17.453   1.528  11.637  1.00  0.00     0.001 A 
BRANCH  23  28
ATOM     28  C   UNL     1      16.977  -1.191  14.082  1.00  0.00     0.252 C 
ATOM     29  N   UNL     1      18.005  -2.069  14.566  1.00  0.00    -0.365 N 
ATOM     30  O   UNL     1      15.783  -1.558  14.130  1.00  0.00    -0.269 OA
ATOM     31  H   UNL     1      18.298  -2.013  15.550  1.00  0.00     0.159 HD
ATOM     32  H   UNL     1      18.442  -2.752  13.913  1.00  0.00     0.159 HD
ENDBRANCH  23  28
ENDBRANCH  21  22
ENDBRANCH  20  21
ENDBRANCH  18  20
ENDBRANCH  12  14
ENDBRANCH   9  10
ENDBRANCH   8   9
BRANCH   8  33
ATOM     33  N   UNL     1      24.488   2.673  17.291  1.00  0.00    -0.337 N 
ATOM     34  C   UNL     1      24.804   1.598  16.460  1.00  0.00     0.270 C 
ATOM     35  H   UNL     1      23.662   3.291  17.053  1.00  0.00     0.164 HD
ATOM     36  O   UNL     1      25.738   0.823  16.638  1.00  0.00    -0.268 OA
BRANCH  34  37
ATOM     37  C   UNL     1      23.921   1.390  15.287  1.00  0.00     0.123 A 
ATOM     38  C   UNL     1      23.034   0.329  15.079  1.00  0.00     0.058 A 
ATOM     39  N   UNL     1      23.807   2.124  14.165  1.00  0.00    -0.273 N 
ATOM     40  C   UNL     1      22.420   0.459  13.839  1.00  0.00     0.060 A 
ATOM     41  N   UNL     1      22.952   1.590  13.345  1.00  0.00    -0.180 NA
ATOM     42  H   UNL     1      24.349   3.017  13.970  1.00  0.00     0.190 HD
ATOM     43  C   UNL     1      21.423  -0.483  13.279  1.00  0.00     0.069 C 
ENDBRANCH  34  37
ENDBRANCH   8  33
ENDBRANCH   5   8
ENDBRANCH   3   4
ENDBRANCH   2   3
ENDBRANCH   1   2
BRANCH   1  44
ATOM     44  C   UNL     1      25.297   8.632  22.295  1.00  0.00     0.000 C 
BRANCH  44  45
ATOM     45  C   UNL     1      24.151   9.493  22.573  1.00  0.00     0.000 C 
BRANCH  45  46
ATOM     46  C   UNL     1      23.456  10.252  21.524  1.00  0.00     0.000 C 
BRANCH  46  47
ATOM     47  C   UNL     1      22.113   9.720  21.073  1.00  0.00     0.000 C 
BRANCH  47  48
ATOM     48  C   UNL     1      22.350   8.628  19.987  1.00  0.00     0.000 C 
BRANCH  48  49
ATOM     49  C   UNL     1      22.966   9.183  18.771  1.00  0.00     0.000 C 
BRANCH  49  50
ATOM     50  C   UNL     1      23.926   8.204  18.001  1.00  0.00     0.001 C 
BRANCH  50  51
ATOM     51  C   UNL     1      24.929   8.995  17.471  1.00  0.00     0.009 C 
BRANCH  51  52
ATOM     52  C   UNL     1      25.617   9.409  16.172  1.00  0.00    -0.012 C 
BRANCH  52  53
ATOM     53  C   UNL     1      25.750  10.930  16.523  1.00  0.00    -0.018 C 
ATOM     54  C   UNL     1      24.444  11.599  16.774  1.00  0.00     0.033 C 
ATOM     55  C   UNL     1      26.700  11.186  17.664  1.00  0.00     0.033 C 
ATOM     56  C   UNL     1      26.356  11.803  15.517  1.00  0.00     0.033 C 
ATOM     57  C   UNL     1      24.539  13.043  17.271  1.00  0.00     0.101 C 
ATOM     58  C   UNL     1      26.662  12.648  18.147  1.00  0.00     0.101 C 
ATOM     59  C   UNL     1      26.339  13.305  15.891  1.00  0.00     0.101 C 
ATOM     60  C   UNL     1      25.296  13.100  18.550  1.00  0.00     0.051 C 
ATOM     61  C   UNL     1      25.037  13.875  16.151  1.00  0.00     0.051 C 
ATOM     62  C   UNL     1      27.200  13.576  17.123  1.00  0.00     0.051 C 
BRANCH  57  63
ATOM     63  S   UNL     1      22.891  13.677  17.626  1.00  0.00     0.270 S 
ATOM     64  O   UNL     1      22.885  14.576  18.803  1.00  0.00    -0.199 OA
ATOM     65  O   UNL     1      22.507  14.494  16.415  1.00  0.00    -0.199 OA
BRANCH  63  66
ATOM     66  O   UNL     1      21.847  12.409  17.820  1.00  0.00    -0.285 OA
ATOM     67  H   UNL     1      22.116  11.671  17.206  1.00  0.00     0.234 HD
ENDBRANCH  63  66
ENDBRANCH  57  63
BRANCH  58  68
ATOM     68  S   UNL     1      27.700  12.804  19.604  1.00  0.00     0.270 S 
ATOM     69  O   UNL     1      27.554  14.153  20.214  1.00  0.00    -0.199 OA
ATOM     70  O   UNL     1      27.230  11.783  20.611  1.00  0.00    -0.199 OA
BRANCH  68  71
ATOM     71  O   UNL     1      29.290  12.449  19.275  1.00  0.00    -0.285 OA
ATOM     72  H   UNL     1      29.345  12.096  18.364  1.00  0.00     0.234 HD
ENDBRANCH  68  71
ENDBRANCH  58  68
BRANCH  59  73
ATOM     73  S   UNL     1      27.117  14.141  14.532  1.00  0.00     0.270 S 
ATOM     74  O   UNL     1      28.435  14.739  14.975  1.00  0.00    -0.199 OA
ATOM     75  O   UNL     1      27.442  13.143  13.456  1.00  0.00    -0.199 OA
BRANCH  73  76
ATOM     76  O   UNL     1      26.114  15.301  13.892  1.00  0.00    -0.285 OA
ATOM     77  H   UNL     1      25.328  15.416  14.452  1.00  0.00     0.234 HD
ENDBRANCH  73  76
ENDBRANCH  59  73
ENDBRANCH  52  53
BRANCH  52  78
ATOM     78  C   UNL     1      26.937   8.708  16.132  1.00  0.00    -0.018 C 
ATOM     79  C   UNL     1      27.883   9.317  15.082  1.00  0.00     0.033 C 
ATOM     80  C   UNL     1      26.980   7.299  15.706  1.00  0.00     0.033 C 
ATOM     81  C   UNL     1      27.724   8.747  17.413  1.00  0.00     0.033 C 
ATOM     82  C   UNL     1      29.288   8.748  15.116  1.00  0.00     0.101 C 
ATOM     83  C   UNL     1      28.398   6.682  15.728  1.00  0.00     0.101 C 
ATOM     84  C   UNL     1      29.125   8.156  17.345  1.00  0.00     0.101 C 
ATOM     85  C   UNL     1      29.313   7.294  14.715  1.00  0.00     0.051 C 
ATOM     86  C   UNL     1      29.997   8.930  16.404  1.00  0.00     0.051 C 
ATOM     87  C   UNL     1      29.023   6.707  17.063  1.00  0.00     0.051 C 
BRANCH  82  88
ATOM     88  S   UNL     1      30.214   9.622  13.847  1.00  0.00     0.270 S 
ATOM     89  O   UNL     1      31.222  10.468  14.555  1.00  0.00    -0.199 OA
ATOM     90  O   UNL     1      29.302  10.475  13.000  1.00  0.00    -0.199 OA
BRANCH  88  91
ATOM     91  O   UNL     1      30.956   8.502  12.876  1.00  0.00    -0.285 OA
ATOM     92  H   UNL     1      31.830   8.838  12.582  1.00  0.00     0.234 HD
ENDBRANCH  88  91
ENDBRANCH  82  88
BRANCH  83  93
ATOM     93  S   UNL     1      28.152   4.977  15.209  1.00  0.00     0.270 S 
ATOM     94  O   UNL     1      29.311   4.123  15.691  1.00  0.00    -0.199 OA
ATOM     95  O   UNL     1      26.931   4.422  15.869  1.00  0.00    -0.199 OA
BRANCH  93  96
ATOM     96  O   UNL     1      28.127   4.884  13.554  1.00  0.00    -0.285 OA
ATOM     97  H   UNL     1      28.665   5.616  13.177  1.00  0.00     0.234 HD
ENDBRANCH  93  96
ENDBRANCH  83  93
BRANCH  84  98
ATOM     98  S   UNL     1      29.888   8.324  18.961  1.00  0.00     0.270 S 
ATOM     99  O   UNL     1      29.677   7.050  19.699  1.00  0.00    -0.199 OA
ATOM    100  O   UNL     1      29.313   9.473  19.730  1.00  0.00    -0.199 OA
BRANCH  98 101
ATOM    101  O   UNL     1      31.539   8.555  18.792  1.00  0.00    -0.285 OA
ATOM    102  H   UNL     1      32.054   8.111  19.527  1.00  0.00     0.234 HD
ENDBRANCH  98 101
ENDBRANCH  84  98
ENDBRANCH  52  78
BRANCH  52 103
ATOM    103  C   UNL     1      24.637   9.164  15.072  1.00  0.00    -0.018 C 
ATOM    104  C   UNL     1      24.904   9.725  13.705  1.00  0.00     0.033 C 
ATOM    105  C   UNL     1      24.495   7.660  14.844  1.00  0.00     0.033 C 
ATOM    106  C   UNL     1      23.240   9.547  15.315  1.00  0.00     0.033 C 
ATOM    107  C   UNL     1      24.010   9.194  12.614  1.00  0.00     0.101 C 
ATOM    108  C   UNL     1      23.507   7.245  13.761  1.00  0.00     0.101 C 
ATOM    109  C   UNL     1      22.239   9.016  14.276  1.00  0.00     0.101 C 
ATOM    110  C   UNL     1      23.991   7.733  12.448  1.00  0.00     0.051 C 
ATOM    111  C   UNL     1      22.538   9.572  12.874  1.00  0.00     0.051 C 
ATOM    112  C   UNL     1      22.129   7.574  14.145  1.00  0.00     0.051 C 
BRANCH 107 113
ATOM    113  S   UNL     1      24.488  10.058  11.120  1.00  0.00     0.270 S 
ATOM    114  O   UNL     1      25.294  11.286  11.476  1.00  0.00    -0.199 OA
ATOM    115  O   UNL     1      23.235  10.536  10.425  1.00  0.00    -0.199 OA
BRANCH 113 116
ATOM    116  O   UNL     1      25.387   9.088  10.108  1.00  0.00    -0.285 OA
ATOM    117  H   UNL     1      25.980   8.524  10.677  1.00  0.00     0.234 HD
ENDBRANCH 113 116
ENDBRANCH 107 113
BRANCH 108 118
ATOM    118  S   UNL     1      23.543   5.454  13.674  1.00  0.00     0.270 S 
ATOM    119  O   UNL     1      22.123   5.027  13.352  1.00  0.00    -0.199 OA
ATOM    120  O   UNL     1      24.488   4.960  12.635  1.00  0.00    -0.199 OA
BRANCH 118 121
ATOM    121  O   UNL     1      23.914   4.856  15.202  1.00  0.00    -0.285 OA
ATOM    122  H   UNL     1      23.303   5.215  15.861  1.00  0.00     0.234 HD
ENDBRANCH 118 121
ENDBRANCH 108 118
BRANCH 109 123
ATOM    123  S   UNL     1      20.620   9.675  14.698  1.00  0.00     0.270 S 
ATOM    124  O   UNL     1      20.766  10.650  15.836  1.00  0.00    -0.199 OA
ATOM    125  O   UNL     1      20.185  10.457  13.492  1.00  0.00    -0.199 OA
BRANCH 123 126
ATOM    126  O   UNL     1      19.574   8.434  15.047  1.00  0.00    -0.285 OA
ATOM    127  H   UNL     1      18.916   8.373  14.291  1.00  0.00     0.234 HD
ENDBRANCH 123 126
ENDBRANCH 109 123
ENDBRANCH  52 103
ENDBRANCH  51  52
ENDBRANCH  50  51
ENDBRANCH  49  50
ENDBRANCH  48  49
ENDBRANCH  47  48
ENDBRANCH  46  47
ENDBRANCH  45  46
ENDBRANCH  44  45
ENDBRANCH   1  44
TORSDOF 43
ENDMDL
MODEL 7
REMARK VINA RESULT:    -8.634      0.552      3.790
REMARK INTER + INTRA:         -41.578
REMARK INTER:                 -28.465
REMARK INTRA:                 -13.113
REMARK UNBOUND:               -13.511
REMARK SMILES Cc1cc(C(=O)N[C@H](CNC(=O)c2cccc(COc3ccccc3C(N)=O)c2)C(=O)NCCCCCCCCCCCC([C@]23C[C@]4(S(=O)(=O)O)C[C@](S(=O)(=O)O)(C2)C[C@](S(=O)(=O)O)(C3)C4)([C@]23C[C@]4(S(=O)(=O)O)C[C@](S(=O)(=O)O)(C2)C[C@](S(=O)(=O)O)(C3)C4)[C@]23C[C@]4(S(=O)(=O)O)C[C@](S(=O)(=O)O)(C2)C[C@](S(=O)(=O)O)(C3)C4)[nH]n1
REMARK SMILES IDX 35 1 34 2 33 3 32 4 30 5 31 6 8 8 9 9 10 10 12 11 11 12
REMARK SMILES IDX 13 14 14 15 29 16 15 17 17 18 16 19 18 20 19 21 20 22 25 23
REMARK SMILES IDX 21 24 24 25 22 26 23 27 26 28 27 29 28 30 7 33 5 34 6 36
REMARK SMILES IDX 4 37 3 38 111 39 2 40 112 41 1 43 36 44 37 45 38 46 39 47
REMARK SMILES IDX 40 48 41 49 42 50 43 51 44 52 67 53 80 54 87 55 68 56 75 57
REMARK SMILES IDX 82 58 69 59 81 60 74 61 88 62 76 63 77 64 78 65 79 66 83 68
REMARK SMILES IDX 84 69 85 70 86 71 70 73 71 74 72 75 73 76 45 78 46 79 58 80
REMARK SMILES IDX 65 81 47 82 53 83 60 84 52 85 66 86 59 87 48 88 49 89 50 90
REMARK SMILES IDX 51 91 54 93 55 94 56 95 57 96 61 98 62 99 63 100 64 101
REMARK SMILES IDX 89 103 102 104 109 105 90 106 97 107 104 108 91 109 103 110
REMARK SMILES IDX 96 111 110 112 98 113 99 114 100 115 101 116 105 118 106 119
REMARK SMILES IDX 107 120 108 121 92 123 93 124 94 125 95 126
REMARK H PARENT 32 7 10 13 27 31 27 32 7 35 111 42 79 67 86 72 73 77 51 92
REMARK H PARENT 57 97 64 102 101 117 108 122 95 127
REMARK Flexibility Score: inf
ROOT
ATOM      1  C   UNL     1      26.069   8.486  21.199  1.00  0.00     0.002 C 
ENDROOT
BRANCH   1   2
ATOM      2  C   UNL     1      26.282   7.075  20.739  1.00  0.00     0.021 C 
BRANCH   2   3
ATOM      3  C   UNL     1      25.045   6.218  20.689  1.00  0.00     0.116 C 
BRANCH   3   4
ATOM      4  N   UNL     1      25.073   4.974  20.075  1.00  0.00    -0.354 N 
ATOM      5  C   UNL     1      25.138   4.471  18.785  1.00  0.00     0.244 C 
ATOM      6  O   UNL     1      25.198   5.227  17.754  1.00  0.00    -0.273 OA
ATOM      7  H   UNL     1      25.038   4.121  20.823  1.00  0.00     0.163 HD
BRANCH   5   8
ATOM      8  C   UNL     1      25.157   3.047  18.461  1.00  0.00     0.191 C 
BRANCH   8   9
ATOM      9  C   UNL     1      24.546   2.173  19.575  1.00  0.00     0.151 C 
BRANCH   9  10
ATOM     10  N   UNL     1      23.152   2.004  19.396  1.00  0.00    -0.349 N 
ATOM     11  O   UNL     1      22.319   3.604  20.848  1.00  0.00    -0.269 OA
ATOM     12  C   UNL     1      22.110   2.732  19.994  1.00  0.00     0.251 C 
ATOM     13  H   UNL     1      22.869   1.237  18.701  1.00  0.00     0.163 HD
BRANCH  12  14
ATOM     14  C   UNL     1      20.755   2.375  19.509  1.00  0.00     0.040 A 
ATOM     15  C   UNL     1      19.651   2.583  20.290  1.00  0.00     0.014 A 
ATOM     16  C   UNL     1      20.619   1.929  18.231  1.00  0.00     0.021 A 
ATOM     17  C   UNL     1      18.372   2.335  19.767  1.00  0.00     0.001 A 
ATOM     18  C   UNL     1      19.342   1.674  17.688  1.00  0.00    -0.010 A 
ATOM     19  C   UNL     1      18.246   1.886  18.476  1.00  0.00     0.007 A 
BRANCH  18  20
ATOM     20  C   UNL     1      19.214   1.187  16.321  1.00  0.00     0.265 C 
BRANCH  20  21
ATOM     21  O   UNL     1      17.918   1.460  15.823  1.00  0.00    -0.488 OA
BRANCH  21  22
ATOM     22  C   UNL     1      17.719   1.418  14.434  1.00  0.00     0.132 A 
ATOM     23  C   UNL     1      17.225   0.292  13.848  1.00  0.00     0.081 A 
ATOM     24  C   UNL     1      18.039   2.534  13.708  1.00  0.00     0.047 A 
ATOM     25  C   UNL     1      17.031   0.268  12.456  1.00  0.00     0.018 A 
ATOM     26  C   UNL     1      17.851   2.512  12.328  1.00  0.00     0.004 A 
ATOM     27  C   UNL     1      17.357   1.391  11.747  1.00  0.00     0.001 A 
BRANCH  23  28
ATOM     28  C   UNL     1      16.876  -0.916  14.582  1.00  0.00     0.252 C 
ATOM     29  N   UNL     1      17.741  -2.061  14.522  1.00  0.00    -0.365 N 
ATOM     30  O   UNL     1      15.832  -0.971  15.266  1.00  0.00    -0.269 OA
ATOM     31  H   UNL     1      18.502  -2.159  15.207  1.00  0.00     0.159 HD
ATOM     32  H   UNL     1      17.587  -2.780  13.784  1.00  0.00     0.159 HD
ENDBRANCH  23  28
ENDBRANCH  21  22
ENDBRANCH  20  21
ENDBRANCH  18  20
ENDBRANCH  12  14
ENDBRANCH   9  10
ENDBRANCH   8   9
BRANCH   8  33
ATOM     33  N   UNL     1      24.409   2.670  17.273  1.00  0.00    -0.337 N 
ATOM     34  C   UNL     1      24.740   1.644  16.387  1.00  0.00     0.270 C 
ATOM     35  H   UNL     1      23.542   3.250  17.098  1.00  0.00     0.164 HD
ATOM     36  O   UNL     1      25.722   0.915  16.490  1.00  0.00    -0.268 OA
BRANCH  34  37
ATOM     37  C   UNL     1      23.812   1.430  15.250  1.00  0.00     0.123 A 
ATOM     38  C   UNL     1      22.769   0.501  15.180  1.00  0.00     0.058 A 
ATOM     39  N   UNL     1      23.789   2.027  14.045  1.00  0.00    -0.273 N 
ATOM     40  C   UNL     1      22.156   0.570  13.933  1.00  0.00     0.060 A 
ATOM     41  N   UNL     1      22.846   1.533  13.300  1.00  0.00    -0.180 NA
ATOM     42  H   UNL     1      24.457   2.794  13.738  1.00  0.00     0.190 HD
ATOM     43  C   UNL     1      21.016  -0.270  13.498  1.00  0.00     0.069 C 
ENDBRANCH  34  37
ENDBRANCH   8  33
ENDBRANCH   5   8
ENDBRANCH   3   4
ENDBRANCH   2   3
ENDBRANCH   1   2
BRANCH   1  44
ATOM     44  C   UNL     1      25.326   8.557  22.470  1.00  0.00     0.000 C 
BRANCH  44  45
ATOM     45  C   UNL     1      24.243   9.486  22.780  1.00  0.00     0.000 C 
BRANCH  45  46
ATOM     46  C   UNL     1      23.542  10.261  21.747  1.00  0.00     0.000 C 
BRANCH  46  47
ATOM     47  C   UNL     1      22.155   9.791  21.366  1.00  0.00     0.000 C 
BRANCH  47  48
ATOM     48  C   UNL     1      22.259   8.938  20.066  1.00  0.00     0.000 C 
BRANCH  48  49
ATOM     49  C   UNL     1      23.201   9.520  19.097  1.00  0.00     0.000 C 
BRANCH  49  50
ATOM     50  C   UNL     1      24.066   8.479  18.297  1.00  0.00     0.001 C 
BRANCH  50  51
ATOM     51  C   UNL     1      25.030   9.217  17.635  1.00  0.00     0.009 C 
BRANCH  51  52
ATOM     52  C   UNL     1      25.562   9.594  16.253  1.00  0.00    -0.012 C 
BRANCH  52  53
ATOM     53  C   UNL     1      25.476  11.145  16.452  1.00  0.00    -0.018 C 
ATOM     54  C   UNL     1      26.032  11.611  17.752  1.00  0.00     0.033 C 
ATOM     55  C   UNL     1      26.089  11.916  15.311  1.00  0.00     0.033 C 
ATOM     56  C   UNL     1      24.144  11.752  16.451  1.00  0.00     0.033 C 
ATOM     57  C   UNL     1      26.109  13.130  17.918  1.00  0.00     0.101 C 
ATOM     58  C   UNL     1      26.198  13.423  15.608  1.00  0.00     0.101 C 
ATOM     59  C   UNL     1      24.138  13.265  16.773  1.00  0.00     0.101 C 
ATOM     60  C   UNL     1      26.964  13.723  16.856  1.00  0.00     0.051 C 
ATOM     61  C   UNL     1      24.724  13.642  18.039  1.00  0.00     0.051 C 
ATOM     62  C   UNL     1      24.862  14.062  15.690  1.00  0.00     0.051 C 
BRANCH  57  63
ATOM     63  S   UNL     1      26.894  13.534  19.488  1.00  0.00     0.270 S 
ATOM     64  O   UNL     1      28.020  14.481  19.317  1.00  0.00    -0.199 OA
ATOM     65  O   UNL     1      25.826  14.223  20.304  1.00  0.00    -0.199 OA
BRANCH  63  66
ATOM     66  O   UNL     1      27.377  12.139  20.233  1.00  0.00    -0.285 OA
ATOM     67  H   UNL     1      28.061  12.360  20.924  1.00  0.00     0.234 HD
ENDBRANCH  63  66
ENDBRANCH  57  63
BRANCH  58  68
ATOM     68  S   UNL     1      27.086  14.215  14.263  1.00  0.00     0.270 S 
ATOM     69  O   UNL     1      26.846  13.500  12.980  1.00  0.00    -0.199 OA
ATOM     70  O   UNL     1      26.548  15.618  14.123  1.00  0.00    -0.199 OA
BRANCH  68  71
ATOM     71  O   UNL     1      28.709  14.360  14.590  1.00  0.00    -0.285 OA
ATOM     72  H   UNL     1      28.966  15.295  14.467  1.00  0.00     0.234 HD
ENDBRANCH  68  71
ENDBRANCH  58  68
BRANCH  59  73
ATOM     73  S   UNL     1      22.434  13.756  16.713  1.00  0.00     0.270 S 
ATOM     74  O   UNL     1      21.676  13.147  17.873  1.00  0.00    -0.199 OA
ATOM     75  O   UNL     1      22.341  15.247  16.880  1.00  0.00    -0.199 OA
BRANCH  73  76
ATOM     76  O   UNL     1      21.743  13.343  15.259  1.00  0.00    -0.285 OA
ATOM     77  H   UNL     1      22.093  13.904  14.546  1.00  0.00     0.234 HD
ENDBRANCH  73  76
ENDBRANCH  59  73
ENDBRANCH  52  53
BRANCH  52  78
ATOM     78  C   UNL     1      26.971   9.098  16.175  1.00  0.00    -0.018 C 
ATOM     79  C   UNL     1      27.689   9.184  17.534  1.00  0.00     0.033 C 
ATOM     80  C   UNL     1      27.938   9.837  15.345  1.00  0.00     0.033 C 
ATOM     81  C   UNL     1      27.124   7.661  15.759  1.00  0.00     0.033 C 
ATOM     82  C   UNL     1      29.063   8.543  17.544  1.00  0.00     0.101 C 
ATOM     83  C   UNL     1      29.353   9.213  15.330  1.00  0.00     0.101 C 
ATOM     84  C   UNL     1      28.541   7.108  15.808  1.00  0.00     0.101 C 
ATOM     85  C   UNL     1      30.034   9.286  16.659  1.00  0.00     0.051 C 
ATOM     86  C   UNL     1      29.075   7.100  17.207  1.00  0.00     0.051 C 
ATOM     87  C   UNL     1      29.374   7.829  14.820  1.00  0.00     0.051 C 
BRANCH  82  88
ATOM     88  S   UNL     1      29.689   8.725  19.219  1.00  0.00     0.270 S 
ATOM     89  O   UNL     1      29.566   7.387  19.873  1.00  0.00    -0.199 OA
ATOM     90  O   UNL     1      28.906   9.766  19.981  1.00  0.00    -0.199 OA
BRANCH  88  91
ATOM     91  O   UNL     1      31.275   9.201  19.136  1.00  0.00    -0.285 OA
ATOM     92  H   UNL     1      31.661   8.936  18.273  1.00  0.00     0.234 HD
ENDBRANCH  88  91
ENDBRANCH  82  88
BRANCH  83  93
ATOM     93  S   UNL     1      30.298  10.276  14.229  1.00  0.00     0.270 S 
ATOM     94  O   UNL     1      29.505  11.534  13.927  1.00  0.00    -0.199 OA
ATOM     95  O   UNL     1      31.545  10.732  14.918  1.00  0.00    -0.199 OA
BRANCH  93  96
ATOM     96  O   UNL     1      30.568   9.505  12.786  1.00  0.00    -0.285 OA
ATOM     97  H   UNL     1      29.811   8.910  12.587  1.00  0.00     0.234 HD
ENDBRANCH  93  96
ENDBRANCH  83  93
BRANCH  84  98
ATOM     98  S   UNL     1      28.494   5.389  15.297  1.00  0.00     0.270 S 
ATOM     99  O   UNL     1      29.727   4.728  15.804  1.00  0.00    -0.199 OA
ATOM    100  O   UNL     1      28.404   5.253  13.808  1.00  0.00    -0.199 OA
BRANCH  98 101
ATOM    101  O   UNL     1      27.176   4.623  15.993  1.00  0.00    -0.285 OA
ATOM    102  H   UNL     1      26.535   5.278  16.396  1.00  0.00     0.234 HD
ENDBRANCH  98 101
ENDBRANCH  84  98
ENDBRANCH  52  78
BRANCH  52 103
ATOM    103  C   UNL     1      24.566   9.092  15.261  1.00  0.00    -0.018 C 
ATOM    104  C   UNL     1      23.125   9.497  15.392  1.00  0.00     0.033 C 
ATOM    105  C   UNL     1      24.965   9.557  13.862  1.00  0.00     0.033 C 
ATOM    106  C   UNL     1      24.480   7.639  15.065  1.00  0.00     0.033 C 
ATOM    107  C   UNL     1      22.262   9.172  14.198  1.00  0.00     0.101 C 
ATOM    108  C   UNL     1      24.052   9.104  12.728  1.00  0.00     0.101 C 
ATOM    109  C   UNL     1      23.653   7.204  13.843  1.00  0.00     0.101 C 
ATOM    110  C   UNL     1      22.714   9.714  12.908  1.00  0.00     0.051 C 
ATOM    111  C   UNL     1      22.187   7.648  13.971  1.00  0.00     0.051 C 
ATOM    112  C   UNL     1      24.118   7.650  12.542  1.00  0.00     0.051 C 
BRANCH 107 113
ATOM    113  S   UNL     1      20.605   9.693  14.631  1.00  0.00     0.270 S 
ATOM    114  O   UNL     1      20.002  10.479  13.489  1.00  0.00    -0.199 OA
ATOM    115  O   UNL     1      20.694  10.628  15.814  1.00  0.00    -0.199 OA
BRANCH 113 116
ATOM    116  O   UNL     1      19.622   8.396  14.982  1.00  0.00    -0.285 OA
ATOM    117  H   UNL     1      19.713   7.737  14.238  1.00  0.00     0.234 HD
ENDBRANCH 113 116
ENDBRANCH 107 113
BRANCH 108 118
ATOM    118  S   UNL     1      24.716   9.791  11.210  1.00  0.00     0.270 S 
ATOM    119  O   UNL     1      23.608  10.644  10.623  1.00  0.00    -0.199 OA
ATOM    120  O   UNL     1      25.936  10.609  11.450  1.00  0.00    -0.199 OA
BRANCH 118 121
ATOM    121  O   UNL     1      25.003   8.527  10.137  1.00  0.00    -0.285 OA
ATOM    122  H   UNL     1      24.841   7.676  10.569  1.00  0.00     0.234 HD
ENDBRANCH 118 121
ENDBRANCH 108 118
BRANCH 109 123
ATOM    123  S   UNL     1      23.593   5.407  13.843  1.00  0.00     0.270 S 
ATOM    124  O   UNL     1      22.216   4.961  13.425  1.00  0.00    -0.199 OA
ATOM    125  O   UNL     1      24.548   4.981  12.765  1.00  0.00    -0.199 OA
BRANCH 123 126
ATOM    126  O   UNL     1      24.032   4.823  15.333  1.00  0.00    -0.285 OA
ATOM    127  H   UNL     1      23.191   4.558  15.813  1.00  0.00     0.234 HD
ENDBRANCH 123 126
ENDBRANCH 109 123
ENDBRANCH  52 103
ENDBRANCH  51  52
ENDBRANCH  50  51
ENDBRANCH  49  50
ENDBRANCH  48  49
ENDBRANCH  47  48
ENDBRANCH  46  47
ENDBRANCH  45  46
ENDBRANCH  44  45
ENDBRANCH   1  44
TORSDOF 43
ENDMDL
MODEL 8
REMARK VINA RESULT:    -8.624      0.541      3.112
REMARK INTER + INTRA:         -41.547
REMARK INTER:                 -28.530
REMARK INTRA:                 -13.017
REMARK UNBOUND:               -13.511
REMARK SMILES Cc1cc(C(=O)N[C@H](CNC(=O)c2cccc(COc3ccccc3C(N)=O)c2)C(=O)NCCCCCCCCCCCC([C@]23C[C@]4(S(=O)(=O)O)C[C@](S(=O)(=O)O)(C2)C[C@](S(=O)(=O)O)(C3)C4)([C@]23C[C@]4(S(=O)(=O)O)C[C@](S(=O)(=O)O)(C2)C[C@](S(=O)(=O)O)(C3)C4)[C@]23C[C@]4(S(=O)(=O)O)C[C@](S(=O)(=O)O)(C2)C[C@](S(=O)(=O)O)(C3)C4)[nH]n1
REMARK SMILES IDX 35 1 34 2 33 3 32 4 30 5 31 6 8 8 9 9 10 10 12 11 11 12
REMARK SMILES IDX 13 14 14 15 29 16 15 17 17 18 16 19 18 20 19 21 20 22 25 23
REMARK SMILES IDX 21 24 24 25 22 26 23 27 26 28 27 29 28 30 7 33 5 34 6 36
REMARK SMILES IDX 4 37 3 38 111 39 2 40 112 41 1 43 36 44 37 45 38 46 39 47
REMARK SMILES IDX 40 48 41 49 42 50 43 51 44 52 67 53 80 54 87 55 68 56 75 57
REMARK SMILES IDX 82 58 69 59 81 60 74 61 88 62 76 63 77 64 78 65 79 66 83 68
REMARK SMILES IDX 84 69 85 70 86 71 70 73 71 74 72 75 73 76 45 78 46 79 58 80
REMARK SMILES IDX 65 81 47 82 53 83 60 84 52 85 66 86 59 87 48 88 49 89 50 90
REMARK SMILES IDX 51 91 54 93 55 94 56 95 57 96 61 98 62 99 63 100 64 101
REMARK SMILES IDX 89 103 102 104 109 105 90 106 97 107 104 108 91 109 103 110
REMARK SMILES IDX 96 111 110 112 98 113 99 114 100 115 101 116 105 118 106 119
REMARK SMILES IDX 107 120 108 121 92 123 93 124 94 125 95 126
REMARK H PARENT 32 7 10 13 27 31 27 32 7 35 111 42 79 67 86 72 73 77 51 92
REMARK H PARENT 57 97 64 102 101 117 108 122 95 127
REMARK Flexibility Score: inf
ROOT
ATOM      1  C   UNL     1      26.018   8.524  20.983  1.00  0.00     0.002 C 
ENDROOT
BRANCH   1   2
ATOM      2  C   UNL     1      26.276   7.115  20.540  1.00  0.00     0.021 C 
BRANCH   2   3
ATOM      3  C   UNL     1      25.106   6.175  20.661  1.00  0.00     0.116 C 
BRANCH   3   4
ATOM      4  N   UNL     1      25.132   4.933  20.044  1.00  0.00    -0.354 N 
ATOM      5  C   UNL     1      25.169   4.434  18.751  1.00  0.00     0.244 C 
ATOM      6  O   UNL     1      25.194   5.192  17.721  1.00  0.00    -0.273 OA
ATOM      7  H   UNL     1      25.126   4.078  20.790  1.00  0.00     0.163 HD
BRANCH   5   8
ATOM      8  C   UNL     1      25.195   3.011  18.423  1.00  0.00     0.191 C 
BRANCH   8   9
ATOM      9  C   UNL     1      24.590   2.130  19.535  1.00  0.00     0.151 C 
BRANCH   9  10
ATOM     10  N   UNL     1      23.195   1.961  19.361  1.00  0.00    -0.349 N 
ATOM     11  O   UNL     1      22.368   3.576  20.801  1.00  0.00    -0.269 OA
ATOM     12  C   UNL     1      22.156   2.697  19.956  1.00  0.00     0.251 C 
ATOM     13  H   UNL     1      22.909   1.189  18.674  1.00  0.00     0.163 HD
BRANCH  12  14
ATOM     14  C   UNL     1      20.799   2.337  19.478  1.00  0.00     0.040 A 
ATOM     15  C   UNL     1      19.698   2.545  20.263  1.00  0.00     0.014 A 
ATOM     16  C   UNL     1      20.657   1.889  18.201  1.00  0.00     0.021 A 
ATOM     17  C   UNL     1      18.417   2.295  19.746  1.00  0.00     0.001 A 
ATOM     18  C   UNL     1      19.379   1.632  17.664  1.00  0.00    -0.010 A 
ATOM     19  C   UNL     1      18.286   1.844  18.457  1.00  0.00     0.007 A 
BRANCH  18  20
ATOM     20  C   UNL     1      19.245   1.142  16.298  1.00  0.00     0.265 C 
BRANCH  20  21
ATOM     21  O   UNL     1      17.960   1.448  15.792  1.00  0.00    -0.488 OA
BRANCH  21  22
ATOM     22  C   UNL     1      17.774   1.428  14.401  1.00  0.00     0.132 A 
ATOM     23  C   UNL     1      17.328   0.298  13.786  1.00  0.00     0.081 A 
ATOM     24  C   UNL     1      18.055   2.571  13.702  1.00  0.00     0.047 A 
ATOM     25  C   UNL     1      17.146   0.297  12.393  1.00  0.00     0.018 A 
ATOM     26  C   UNL     1      17.880   2.573  12.321  1.00  0.00     0.004 A 
ATOM     27  C   UNL     1      17.434   1.447  11.711  1.00  0.00     0.001 A 
BRANCH  23  28
ATOM     28  C   UNL     1      17.021  -0.939  14.491  1.00  0.00     0.252 C 
ATOM     29  N   UNL     1      15.766  -1.076  15.176  1.00  0.00    -0.365 N 
ATOM     30  O   UNL     1      17.836  -1.886  14.507  1.00  0.00    -0.269 OA
ATOM     31  H   UNL     1      14.950  -1.447  14.672  1.00  0.00     0.159 HD
ATOM     32  H   UNL     1      15.698  -0.797  16.177  1.00  0.00     0.159 HD
ENDBRANCH  23  28
ENDBRANCH  21  22
ENDBRANCH  20  21
ENDBRANCH  18  20
ENDBRANCH  12  14
ENDBRANCH   9  10
ENDBRANCH   8   9
BRANCH   8  33
ATOM     33  N   UNL     1      24.450   2.633  17.234  1.00  0.00    -0.337 N 
ATOM     34  C   UNL     1      24.766   1.588  16.365  1.00  0.00     0.270 C 
ATOM     35  H   UNL     1      23.595   3.228  17.045  1.00  0.00     0.164 HD
ATOM     36  O   UNL     1      25.731   0.841  16.486  1.00  0.00    -0.268 OA
BRANCH  34  37
ATOM     37  C   UNL     1      23.843   1.378  15.224  1.00  0.00     0.123 A 
ATOM     38  C   UNL     1      22.829   0.419  15.129  1.00  0.00     0.058 A 
ATOM     39  N   UNL     1      23.798   2.008  14.037  1.00  0.00    -0.273 N 
ATOM     40  C   UNL     1      22.212   0.504  13.885  1.00  0.00     0.060 A 
ATOM     41  N   UNL     1      22.869   1.506  13.279  1.00  0.00    -0.180 NA
ATOM     42  H   UNL     1      24.441   2.804  13.751  1.00  0.00     0.190 HD
ATOM     43  C   UNL     1      21.098  -0.358  13.427  1.00  0.00     0.069 C 
ENDBRANCH  34  37
ENDBRANCH   8  33
ENDBRANCH   5   8
ENDBRANCH   3   4
ENDBRANCH   2   3
ENDBRANCH   1   2
BRANCH   1  44
ATOM     44  C   UNL     1      25.164   8.589  22.182  1.00  0.00     0.000 C 
BRANCH  44  45
ATOM     45  C   UNL     1      24.143   9.596  22.456  1.00  0.00     0.000 C 
BRANCH  45  46
ATOM     46  C   UNL     1      23.428  10.311  21.390  1.00  0.00     0.000 C 
BRANCH  46  47
ATOM     47  C   UNL     1      22.082   9.754  20.979  1.00  0.00     0.000 C 
BRANCH  47  48
ATOM     48  C   UNL     1      22.311   8.616  19.939  1.00  0.00     0.000 C 
BRANCH  48  49
ATOM     49  C   UNL     1      22.864   9.126  18.675  1.00  0.00     0.000 C 
BRANCH  49  50
ATOM     50  C   UNL     1      23.903   8.179  17.969  1.00  0.00     0.001 C 
BRANCH  50  51
ATOM     51  C   UNL     1      24.889   9.007  17.464  1.00  0.00     0.009 C 
BRANCH  51  52
ATOM     52  C   UNL     1      25.554   9.491  16.178  1.00  0.00    -0.012 C 
BRANCH  52  53
ATOM     53  C   UNL     1      25.569  11.012  16.552  1.00  0.00    -0.018 C 
ATOM     54  C   UNL     1      26.332  11.312  17.795  1.00  0.00     0.033 C 
ATOM     55  C   UNL     1      26.041  11.889  15.421  1.00  0.00     0.033 C 
ATOM     56  C   UNL     1      24.281  11.654  16.819  1.00  0.00     0.033 C 
ATOM     57  C   UNL     1      26.502  12.800  18.109  1.00  0.00     0.101 C 
ATOM     58  C   UNL     1      26.262  13.349  15.857  1.00  0.00     0.101 C 
ATOM     59  C   UNL     1      24.392  13.121  17.299  1.00  0.00     0.101 C 
ATOM     60  C   UNL     1      27.217  13.484  16.999  1.00  0.00     0.051 C 
ATOM     61  C   UNL     1      25.175  13.335  18.494  1.00  0.00     0.051 C 
ATOM     62  C   UNL     1      24.983  14.013  16.210  1.00  0.00     0.051 C 
BRANCH  57  63
ATOM     63  S   UNL     1      27.528  13.001  19.576  1.00  0.00     0.270 S 
ATOM     64  O   UNL     1      28.953  13.213  19.230  1.00  0.00    -0.199 OA
ATOM     65  O   UNL     1      27.022  14.254  20.250  1.00  0.00    -0.199 OA
BRANCH  63  66
ATOM     66  O   UNL     1      27.328  11.693  20.567  1.00  0.00    -0.285 OA
ATOM     67  H   UNL     1      27.001  10.922  20.025  1.00  0.00     0.234 HD
ENDBRANCH  63  66
ENDBRANCH  57  63
BRANCH  58  68
ATOM     68  S   UNL     1      26.976  14.262  14.486  1.00  0.00     0.270 S 
ATOM     69  O   UNL     1      26.021  14.332  13.346  1.00  0.00    -0.199 OA
ATOM     70  O   UNL     1      27.239  15.669  14.961  1.00  0.00    -0.199 OA
BRANCH  68  71
ATOM     71  O   UNL     1      28.443  13.635  14.019  1.00  0.00    -0.285 OA
ATOM     72  H   UNL     1      29.142  14.053  14.560  1.00  0.00     0.234 HD
ENDBRANCH  68  71
ENDBRANCH  58  68
BRANCH  59  73
ATOM     73  S   UNL     1      22.722  13.664  17.552  1.00  0.00     0.270 S 
ATOM     74  O   UNL     1      22.110  12.934  18.728  1.00  0.00    -0.199 OA
ATOM     75  O   UNL     1      22.724  15.124  17.911  1.00  0.00    -0.199 OA
BRANCH  73  76
ATOM     76  O   UNL     1      21.811  13.459  16.176  1.00  0.00    -0.285 OA
ATOM     77  H   UNL     1      22.146  14.026  15.461  1.00  0.00     0.234 HD
ENDBRANCH  73  76
ENDBRANCH  59  73
ENDBRANCH  52  53
BRANCH  52  78
ATOM     78  C   UNL     1      26.923   8.892  16.139  1.00  0.00    -0.018 C 
ATOM     79  C   UNL     1      27.836   9.602  15.123  1.00  0.00     0.033 C 
ATOM     80  C   UNL     1      27.078   7.504  15.671  1.00  0.00     0.033 C 
ATOM     81  C   UNL     1      27.686   8.949  17.434  1.00  0.00     0.033 C 
ATOM     82  C   UNL     1      29.279   9.139  15.164  1.00  0.00     0.101 C 
ATOM     83  C   UNL     1      28.537   6.994  15.699  1.00  0.00     0.101 C 
ATOM     84  C   UNL     1      29.129   8.467  17.372  1.00  0.00     0.101 C 
ATOM     85  C   UNL     1      29.418   7.703  14.720  1.00  0.00     0.051 C 
ATOM     86  C   UNL     1      29.953   9.332  16.469  1.00  0.00     0.051 C 
ATOM     87  C   UNL     1      29.140   7.024  17.044  1.00  0.00     0.051 C 
BRANCH  82  88
ATOM     88  S   UNL     1      30.155  10.118  13.938  1.00  0.00     0.270 S 
ATOM     89  O   UNL     1      30.912   9.156  13.079  1.00  0.00    -0.199 OA
ATOM     90  O   UNL     1      31.094  11.098  14.596  1.00  0.00    -0.199 OA
BRANCH  88  91
ATOM     91  O   UNL     1      29.040  10.959  13.045  1.00  0.00    -0.285 OA
ATOM     92  H   UNL     1      28.942  10.551  12.158  1.00  0.00     0.234 HD
ENDBRANCH  88  91
ENDBRANCH  82  88
BRANCH  83  93
ATOM     93  S   UNL     1      28.427   5.293  15.125  1.00  0.00     0.270 S 
ATOM     94  O   UNL     1      27.225   4.616  15.757  1.00  0.00    -0.199 OA
ATOM     95  O   UNL     1      28.180   5.275  13.650  1.00  0.00    -0.199 OA
BRANCH  93  96
ATOM     96  O   UNL     1      29.773   4.445  15.595  1.00  0.00    -0.285 OA
ATOM     97  H   UNL     1      30.334   5.014  16.168  1.00  0.00     0.234 HD
ENDBRANCH  93  96
ENDBRANCH  83  93
BRANCH  84  98
ATOM     98  S   UNL     1      29.853   8.640  19.004  1.00  0.00     0.270 S 
ATOM     99  O   UNL     1      29.077   9.674  19.740  1.00  0.00    -0.199 OA
ATOM    100  O   UNL     1      31.298   9.026  18.932  1.00  0.00    -0.199 OA
BRANCH  98 101
ATOM    101  O   UNL     1      29.717   7.197  19.845  1.00  0.00    -0.285 OA
ATOM    102  H   UNL     1      30.609   6.863  20.156  1.00  0.00     0.234 HD
ENDBRANCH  98 101
ENDBRANCH  84  98
ENDBRANCH  52  78
BRANCH  52 103
ATOM    103  C   UNL     1      24.603   9.190  15.066  1.00  0.00    -0.018 C 
ATOM    104  C   UNL     1      24.889   9.714  13.688  1.00  0.00     0.033 C 
ATOM    105  C   UNL     1      24.499   7.677  14.884  1.00  0.00     0.033 C 
ATOM    106  C   UNL     1      23.194   9.550  15.267  1.00  0.00     0.033 C 
ATOM    107  C   UNL     1      24.030   9.129  12.595  1.00  0.00     0.101 C 
ATOM    108  C   UNL     1      23.543   7.206  13.794  1.00  0.00     0.101 C 
ATOM    109  C   UNL     1      22.227   8.965  14.224  1.00  0.00     0.101 C 
ATOM    110  C   UNL     1      24.044   7.663  12.476  1.00  0.00     0.051 C 
ATOM    111  C   UNL     1      22.544   9.483  12.812  1.00  0.00     0.051 C 
ATOM    112  C   UNL     1      22.151   7.518  14.138  1.00  0.00     0.051 C 
BRANCH 107 113
ATOM    113  S   UNL     1      24.522   9.955  11.085  1.00  0.00     0.270 S 
ATOM    114  O   UNL     1      25.992  10.299  11.147  1.00  0.00    -0.199 OA
ATOM    115  O   UNL     1      23.766  11.260  10.989  1.00  0.00    -0.199 OA
BRANCH 113 116
ATOM    116  O   UNL     1      24.237   9.011   9.744  1.00  0.00    -0.285 OA
ATOM    117  H   UNL     1      23.629   8.269  10.019  1.00  0.00     0.234 HD
ENDBRANCH 113 116
ENDBRANCH 107 113
BRANCH 108 118
ATOM    118  S   UNL     1      23.618   5.415  13.765  1.00  0.00     0.270 S 
ATOM    119  O   UNL     1      22.206   4.946  13.471  1.00  0.00    -0.199 OA
ATOM    120  O   UNL     1      24.564   4.908  12.733  1.00  0.00    -0.199 OA
BRANCH 118 121
ATOM    121  O   UNL     1      24.018   4.876  15.308  1.00  0.00    -0.285 OA
ATOM    122  H   UNL     1      24.925   4.538  15.322  1.00  0.00     0.234 HD
ENDBRANCH 118 121
ENDBRANCH 108 118
BRANCH 109 123
ATOM    123  S   UNL     1      20.586   9.601  14.591  1.00  0.00     0.270 S 
ATOM    124  O   UNL     1      20.688  10.621  15.695  1.00  0.00    -0.199 OA
ATOM    125  O   UNL     1      20.157  10.328  13.348  1.00  0.00    -0.199 OA
BRANCH 123 126
ATOM    126  O   UNL     1      19.561   8.350  14.966  1.00  0.00    -0.285 OA
ATOM    127  H   UNL     1      19.987   7.824  15.709  1.00  0.00     0.234 HD
ENDBRANCH 123 126
ENDBRANCH 109 123
ENDBRANCH  52 103
ENDBRANCH  51  52
ENDBRANCH  50  51
ENDBRANCH  49  50
ENDBRANCH  48  49
ENDBRANCH  47  48
ENDBRANCH  46  47
ENDBRANCH  45  46
ENDBRANCH  44  45
ENDBRANCH   1  44
TORSDOF 43
ENDMDL
MODEL 9
REMARK VINA RESULT:    -8.619      0.516      5.792
REMARK INTER + INTRA:         -41.530
REMARK INTER:                 -28.009
REMARK INTRA:                 -13.521
REMARK UNBOUND:               -13.511
REMARK SMILES Cc1cc(C(=O)N[C@H](CNC(=O)c2cccc(COc3ccccc3C(N)=O)c2)C(=O)NCCCCCCCCCCCC([C@]23C[C@]4(S(=O)(=O)O)C[C@](S(=O)(=O)O)(C2)C[C@](S(=O)(=O)O)(C3)C4)([C@]23C[C@]4(S(=O)(=O)O)C[C@](S(=O)(=O)O)(C2)C[C@](S(=O)(=O)O)(C3)C4)[C@]23C[C@]4(S(=O)(=O)O)C[C@](S(=O)(=O)O)(C2)C[C@](S(=O)(=O)O)(C3)C4)[nH]n1
REMARK SMILES IDX 35 1 34 2 33 3 32 4 30 5 31 6 8 8 9 9 10 10 12 11 11 12
REMARK SMILES IDX 13 14 14 15 29 16 15 17 17 18 16 19 18 20 19 21 20 22 25 23
REMARK SMILES IDX 21 24 24 25 22 26 23 27 26 28 27 29 28 30 7 33 5 34 6 36
REMARK SMILES IDX 4 37 3 38 111 39 2 40 112 41 1 43 36 44 37 45 38 46 39 47
REMARK SMILES IDX 40 48 41 49 42 50 43 51 44 52 67 53 80 54 87 55 68 56 75 57
REMARK SMILES IDX 82 58 69 59 81 60 74 61 88 62 76 63 77 64 78 65 79 66 83 68
REMARK SMILES IDX 84 69 85 70 86 71 70 73 71 74 72 75 73 76 45 78 46 79 58 80
REMARK SMILES IDX 65 81 47 82 53 83 60 84 52 85 66 86 59 87 48 88 49 89 50 90
REMARK SMILES IDX 51 91 54 93 55 94 56 95 57 96 61 98 62 99 63 100 64 101
REMARK SMILES IDX 89 103 102 104 109 105 90 106 97 107 104 108 91 109 103 110
REMARK SMILES IDX 96 111 110 112 98 113 99 114 100 115 101 116 105 118 106 119
REMARK SMILES IDX 107 120 108 121 92 123 93 124 94 125 95 126
REMARK H PARENT 32 7 10 13 27 31 27 32 7 35 111 42 79 67 86 72 73 77 51 92
REMARK H PARENT 57 97 64 102 101 117 108 122 95 127
REMARK Flexibility Score: inf
ROOT
ATOM      1  C   UNL     1      26.262   8.598  21.511  1.00  0.00     0.002 C 
ENDROOT
BRANCH   1   2
ATOM      2  C   UNL     1      26.198   7.457  20.539  1.00  0.00     0.021 C 
BRANCH   2   3
ATOM      3  C   UNL     1      25.155   6.413  20.837  1.00  0.00     0.116 C 
BRANCH   3   4
ATOM      4  N   UNL     1      25.192   5.179  20.206  1.00  0.00    -0.354 N 
ATOM      5  C   UNL     1      25.182   4.693  18.907  1.00  0.00     0.244 C 
ATOM      6  O   UNL     1      25.131   5.461  17.885  1.00  0.00    -0.273 OA
ATOM      7  H   UNL     1      25.252   4.317  20.942  1.00  0.00     0.163 HD
BRANCH   5   8
ATOM      8  C   UNL     1      25.240   3.275  18.563  1.00  0.00     0.191 C 
BRANCH   8   9
ATOM      9  C   UNL     1      24.668   2.367  19.670  1.00  0.00     0.151 C 
BRANCH   9  10
ATOM     10  N   UNL     1      23.278   2.158  19.503  1.00  0.00    -0.349 N 
ATOM     11  O   UNL     1      22.412   3.736  20.961  1.00  0.00    -0.269 OA
ATOM     12  C   UNL     1      22.220   2.858  20.109  1.00  0.00     0.251 C 
ATOM     13  H   UNL     1      23.011   1.383  18.811  1.00  0.00     0.163 HD
BRANCH  12  14
ATOM     14  C   UNL     1      20.872   2.462  19.636  1.00  0.00     0.040 A 
ATOM     15  C   UNL     1      19.774   2.606  20.439  1.00  0.00     0.014 A 
ATOM     16  C   UNL     1      20.731   2.047  18.348  1.00  0.00     0.021 A 
ATOM     17  C   UNL     1      18.497   2.323  19.930  1.00  0.00     0.001 A 
ATOM     18  C   UNL     1      19.457   1.758  17.818  1.00  0.00    -0.010 A 
ATOM     19  C   UNL     1      18.366   1.906  18.629  1.00  0.00     0.007 A 
BRANCH  18  20
ATOM     20  C   UNL     1      19.324   1.304  16.439  1.00  0.00     0.265 C 
BRANCH  20  21
ATOM     21  O   UNL     1      18.010   1.538  15.971  1.00  0.00    -0.488 OA
BRANCH  21  22
ATOM     22  C   UNL     1      17.752   1.357  14.603  1.00  0.00     0.132 A 
ATOM     23  C   UNL     1      17.139   0.221  14.168  1.00  0.00     0.081 A 
ATOM     24  C   UNL     1      18.137   2.350  13.743  1.00  0.00     0.047 A 
ATOM     25  C   UNL     1      16.887   0.057  12.795  1.00  0.00     0.018 A 
ATOM     26  C   UNL     1      17.892   2.189  12.381  1.00  0.00     0.004 A 
ATOM     27  C   UNL     1      17.280   1.059  11.950  1.00  0.00     0.001 A 
BRANCH  23  28
ATOM     28  C   UNL     1      16.717  -0.859  15.047  1.00  0.00     0.252 C 
ATOM     29  N   UNL     1      17.700  -1.731  15.627  1.00  0.00    -0.365 N 
ATOM     30  O   UNL     1      15.508  -1.039  15.306  1.00  0.00    -0.269 OA
ATOM     31  H   UNL     1      18.124  -1.489  16.532  1.00  0.00     0.159 HD
ATOM     32  H   UNL     1      17.972  -2.601  15.122  1.00  0.00     0.159 HD
ENDBRANCH  23  28
ENDBRANCH  21  22
ENDBRANCH  20  21
ENDBRANCH  18  20
ENDBRANCH  12  14
ENDBRANCH   9  10
ENDBRANCH   8   9
BRANCH   8  33
ATOM     33  N   UNL     1      24.492   2.892  17.377  1.00  0.00    -0.337 N 
ATOM     34  C   UNL     1      24.771   1.805  16.547  1.00  0.00     0.270 C 
ATOM     35  H   UNL     1      23.669   3.519  17.157  1.00  0.00     0.164 HD
ATOM     36  O   UNL     1      25.699   1.019  16.705  1.00  0.00    -0.268 OA
BRANCH  34  37
ATOM     37  C   UNL     1      23.852   1.600  15.401  1.00  0.00     0.123 A 
ATOM     38  C   UNL     1      22.814   0.667  15.312  1.00  0.00     0.058 A 
ATOM     39  N   UNL     1      23.835   2.209  14.202  1.00  0.00    -0.273 N 
ATOM     40  C   UNL     1      22.211   0.746  14.062  1.00  0.00     0.060 A 
ATOM     41  N   UNL     1      22.900   1.719  13.444  1.00  0.00    -0.180 NA
ATOM     42  H   UNL     1      24.502   2.983  13.909  1.00  0.00     0.190 HD
ATOM     43  C   UNL     1      21.078  -0.094  13.609  1.00  0.00     0.069 C 
ENDBRANCH  34  37
ENDBRANCH   8  33
ENDBRANCH   5   8
ENDBRANCH   3   4
ENDBRANCH   2   3
ENDBRANCH   1   2
BRANCH   1  44
ATOM     44  C   UNL     1      25.263   8.476  22.587  1.00  0.00     0.000 C 
BRANCH  44  45
ATOM     45  C   UNL     1      24.399   9.545  23.081  1.00  0.00     0.000 C 
BRANCH  45  46
ATOM     46  C   UNL     1      23.655  10.440  22.185  1.00  0.00     0.000 C 
BRANCH  46  47
ATOM     47  C   UNL     1      22.895   9.791  21.049  1.00  0.00     0.000 C 
BRANCH  47  48
ATOM     48  C   UNL     1      23.571  10.195  19.704  1.00  0.00     0.000 C 
BRANCH  48  49
ATOM     49  C   UNL     1      23.009   9.458  18.561  1.00  0.00     0.000 C 
BRANCH  49  50
ATOM     50  C   UNL     1      23.949   8.357  17.947  1.00  0.00     0.001 C 
BRANCH  50  51
ATOM     51  C   UNL     1      25.000   9.040  17.362  1.00  0.00     0.009 C 
BRANCH  51  52
ATOM     52  C   UNL     1      25.478   9.696  16.069  1.00  0.00    -0.012 C 
BRANCH  52  53
ATOM     53  C   UNL     1      26.860   8.963  16.003  1.00  0.00    -0.018 C 
ATOM     54  C   UNL     1      27.788   9.532  14.988  1.00  0.00     0.033 C 
ATOM     55  C   UNL     1      27.540   8.874  17.345  1.00  0.00     0.033 C 
ATOM     56  C   UNL     1      26.854   7.542  15.653  1.00  0.00     0.033 C 
ATOM     57  C   UNL     1      29.202   8.946  14.999  1.00  0.00     0.101 C 
ATOM     58  C   UNL     1      28.985   8.352  17.243  1.00  0.00     0.101 C 
ATOM     59  C   UNL     1      28.263   6.924  15.491  1.00  0.00     0.101 C 
ATOM     60  C   UNL     1      29.840   9.164  16.325  1.00  0.00     0.051 C 
ATOM     61  C   UNL     1      29.117   7.551  14.508  1.00  0.00     0.051 C 
ATOM     62  C   UNL     1      29.024   6.932  16.815  1.00  0.00     0.051 C 
BRANCH  57  63
ATOM     63  S   UNL     1      30.229   9.803  13.793  1.00  0.00     0.270 S 
ATOM     64  O   UNL     1      31.322  10.567  14.438  1.00  0.00    -0.199 OA
ATOM     65  O   UNL     1      30.854   8.714  12.953  1.00  0.00    -0.199 OA
BRANCH  63  66
ATOM     66  O   UNL     1      29.275  10.776  12.855  1.00  0.00    -0.285 OA
ATOM     67  H   UNL     1      28.583  10.215  12.406  1.00  0.00     0.234 HD
ENDBRANCH  63  66
ENDBRANCH  57  63
BRANCH  58  68
ATOM     68  S   UNL     1      29.750   8.441  18.865  1.00  0.00     0.270 S 
ATOM     69  O   UNL     1      29.605   7.148  19.587  1.00  0.00    -0.199 OA
ATOM     70  O   UNL     1      31.223   8.701  18.662  1.00  0.00    -0.199 OA
BRANCH  68  71
ATOM     71  O   UNL     1      29.162   9.713  19.759  1.00  0.00    -0.285 OA
ATOM     72  H   UNL     1      29.922  10.217  20.114  1.00  0.00     0.234 HD
ENDBRANCH  68  71
ENDBRANCH  58  68
BRANCH  59  73
ATOM     73  S   UNL     1      27.989   5.222  15.071  1.00  0.00     0.270 S 
ATOM     74  O   UNL     1      27.962   5.055  13.567  1.00  0.00    -0.199 OA
ATOM     75  O   UNL     1      29.141   4.395  15.571  1.00  0.00    -0.199 OA
BRANCH  73  76
ATOM     76  O   UNL     1      26.590   4.653  15.765  1.00  0.00    -0.285 OA
ATOM     77  H   UNL     1      26.579   4.850  16.717  1.00  0.00     0.234 HD
ENDBRANCH  73  76
ENDBRANCH  59  73
ENDBRANCH  52  53
BRANCH  52  78
ATOM     78  C   UNL     1      24.542   9.264  14.986  1.00  0.00    -0.018 C 
ATOM     79  C   UNL     1      24.515   7.734  14.822  1.00  0.00     0.033 C 
ATOM     80  C   UNL     1      24.840   9.649  13.595  1.00  0.00     0.033 C 
ATOM     81  C   UNL     1      23.102   9.646  15.191  1.00  0.00     0.033 C 
ATOM     82  C   UNL     1      23.463   7.238  13.850  1.00  0.00     0.101 C 
ATOM     83  C   UNL     1      23.788   9.162  12.573  1.00  0.00     0.101 C 
ATOM     84  C   UNL     1      22.121   9.095  14.165  1.00  0.00     0.101 C 
ATOM     85  C   UNL     1      23.759   7.673  12.436  1.00  0.00     0.051 C 
ATOM     86  C   UNL     1      22.071   7.599  14.209  1.00  0.00     0.051 C 
ATOM     87  C   UNL     1      22.432   9.677  12.841  1.00  0.00     0.051 C 
BRANCH  82  88
ATOM     88  S   UNL     1      23.587   5.445  13.848  1.00  0.00     0.270 S 
ATOM     89  O   UNL     1      23.969   5.038  15.234  1.00  0.00    -0.199 OA
ATOM     90  O   UNL     1      24.616   4.974  12.851  1.00  0.00    -0.199 OA
BRANCH  88  91
ATOM     91  O   UNL     1      22.110   4.819  13.432  1.00  0.00    -0.285 OA
ATOM     92  H   UNL     1      21.768   4.252  14.157  1.00  0.00     0.234 HD
ENDBRANCH  88  91
ENDBRANCH  82  88
BRANCH  83  93
ATOM     93  S   UNL     1      24.372   9.794  10.993  1.00  0.00     0.270 S 
ATOM     94  O   UNL     1      23.922  11.233  10.820  1.00  0.00    -0.199 OA
ATOM     95  O   UNL     1      25.867   9.828  10.987  1.00  0.00    -0.199 OA
BRANCH  93  96
ATOM     96  O   UNL     1      23.711   8.918   9.750  1.00  0.00    -0.285 OA
ATOM     97  H   UNL     1      23.579   9.504   8.972  1.00  0.00     0.234 HD
ENDBRANCH  93  96
ENDBRANCH  83  93
BRANCH  84  98
ATOM     98  S   UNL     1      20.473   9.648  14.607  1.00  0.00     0.270 S 
ATOM     99  O   UNL     1      20.592  10.540  15.792  1.00  0.00    -0.199 OA
ATOM    100  O   UNL     1      19.563   8.497  14.910  1.00  0.00    -0.199 OA
BRANCH  98 101
ATOM    101  O   UNL     1      19.815  10.543  13.352  1.00  0.00    -0.285 OA
ATOM    102  H   UNL     1      20.494  11.145  12.929  1.00  0.00     0.234 HD
ENDBRANCH  98 101
ENDBRANCH  84  98
ENDBRANCH  52  78
BRANCH  52 103
ATOM    103  C   UNL     1      25.622  11.154  16.358  1.00  0.00    -0.018 C 
ATOM    104  C   UNL     1      26.320  12.039  15.366  1.00  0.00     0.033 C 
ATOM    105  C   UNL     1      24.237  11.780  16.516  1.00  0.00     0.033 C 
ATOM    106  C   UNL     1      26.250  11.532  17.631  1.00  0.00     0.033 C 
ATOM    107  C   UNL     1      26.170  13.518  15.616  1.00  0.00     0.101 C 
ATOM    108  C   UNL     1      24.216  13.270  16.838  1.00  0.00     0.101 C 
ATOM    109  C   UNL     1      26.114  13.018  17.999  1.00  0.00     0.101 C 
ATOM    110  C   UNL     1      24.790  14.022  15.698  1.00  0.00     0.051 C 
ATOM    111  C   UNL     1      26.806  13.918  16.962  1.00  0.00     0.051 C 
ATOM    112  C   UNL     1      24.767  13.532  18.173  1.00  0.00     0.051 C 
BRANCH 107 113
ATOM    113  S   UNL     1      27.135  14.334  14.348  1.00  0.00     0.270 S 
ATOM    114  O   UNL     1      28.120  13.358  13.748  1.00  0.00    -0.199 OA
ATOM    115  O   UNL     1      27.941  15.434  14.998  1.00  0.00    -0.199 OA
BRANCH 113 116
ATOM    116  O   UNL     1      26.170  14.951  13.139  1.00  0.00    -0.285 OA
ATOM    117  H   UNL     1      25.780  14.180  12.641  1.00  0.00     0.234 HD
ENDBRANCH 113 116
ENDBRANCH 107 113
BRANCH 108 118
ATOM    118  S   UNL     1      22.495  13.761  16.947  1.00  0.00     0.270 S 
ATOM    119  O   UNL     1      21.930  13.024  18.147  1.00  0.00    -0.199 OA
ATOM    120  O   UNL     1      22.339  15.232  17.113  1.00  0.00    -0.199 OA
BRANCH 118 121
ATOM    121  O   UNL     1      21.694  13.191  15.582  1.00  0.00    -0.285 OA
ATOM    122  H   UNL     1      20.783  12.948  15.803  1.00  0.00     0.234 HD
ENDBRANCH 118 121
ENDBRANCH 108 118
BRANCH 109 123
ATOM    123  S   UNL     1      27.027  13.285  19.524  1.00  0.00     0.270 S 
ATOM    124  O   UNL     1      26.277  14.269  20.382  1.00  0.00    -0.199 OA
ATOM    125  O   UNL     1      27.003  11.962  20.235  1.00  0.00    -0.199 OA
BRANCH 123 126
ATOM    126  O   UNL     1      28.574  13.780  19.182  1.00  0.00    -0.285 OA
ATOM    127  H   UNL     1      28.866  13.303  18.348  1.00  0.00     0.234 HD
ENDBRANCH 123 126
ENDBRANCH 109 123
ENDBRANCH  52 103
ENDBRANCH  51  52
ENDBRANCH  50  51
ENDBRANCH  49  50
ENDBRANCH  48  49
ENDBRANCH  47  48
ENDBRANCH  46  47
ENDBRANCH  45  46
ENDBRANCH  44  45
ENDBRANCH   1  44
TORSDOF 43
ENDMDL
MODEL 10
REMARK VINA RESULT:    -8.619      2.498      7.145
REMARK INTER + INTRA:         -41.529
REMARK INTER:                 -29.251
REMARK INTRA:                 -12.278
REMARK UNBOUND:               -13.511
REMARK SMILES Cc1cc(C(=O)N[C@H](CNC(=O)c2cccc(COc3ccccc3C(N)=O)c2)C(=O)NCCCCCCCCCCCC([C@]23C[C@]4(S(=O)(=O)O)C[C@](S(=O)(=O)O)(C2)C[C@](S(=O)(=O)O)(C3)C4)([C@]23C[C@]4(S(=O)(=O)O)C[C@](S(=O)(=O)O)(C2)C[C@](S(=O)(=O)O)(C3)C4)[C@]23C[C@]4(S(=O)(=O)O)C[C@](S(=O)(=O)O)(C2)C[C@](S(=O)(=O)O)(C3)C4)[nH]n1
REMARK SMILES IDX 35 1 34 2 33 3 32 4 30 5 31 6 8 8 9 9 10 10 12 11 11 12
REMARK SMILES IDX 13 14 14 15 29 16 15 17 17 18 16 19 18 20 19 21 20 22 25 23
REMARK SMILES IDX 21 24 24 25 22 26 23 27 26 28 27 29 28 30 7 33 5 34 6 36
REMARK SMILES IDX 4 37 3 38 111 39 2 40 112 41 1 43 36 44 37 45 38 46 39 47
REMARK SMILES IDX 40 48 41 49 42 50 43 51 44 52 67 53 80 54 87 55 68 56 75 57
REMARK SMILES IDX 82 58 69 59 81 60 74 61 88 62 76 63 77 64 78 65 79 66 83 68
REMARK SMILES IDX 84 69 85 70 86 71 70 73 71 74 72 75 73 76 45 78 46 79 58 80
REMARK SMILES IDX 65 81 47 82 53 83 60 84 52 85 66 86 59 87 48 88 49 89 50 90
REMARK SMILES IDX 51 91 54 93 55 94 56 95 57 96 61 98 62 99 63 100 64 101
REMARK SMILES IDX 89 103 102 104 109 105 90 106 97 107 104 108 91 109 103 110
REMARK SMILES IDX 96 111 110 112 98 113 99 114 100 115 101 116 105 118 106 119
REMARK SMILES IDX 107 120 108 121 92 123 93 124 94 125 95 126
REMARK H PARENT 32 7 10 13 27 31 27 32 7 35 111 42 79 67 86 72 73 77 51 92
REMARK H PARENT 57 97 64 102 101 117 108 122 95 127
REMARK Flexibility Score: inf
ROOT
ATOM      1  C   UNL     1      26.663   5.797  12.760  1.00  0.00     0.002 C 
ENDROOT
BRANCH   1   2
ATOM      2  C   UNL     1      26.608   4.600  13.661  1.00  0.00     0.021 C 
BRANCH   2   3
ATOM      3  C   UNL     1      25.503   4.612  14.684  1.00  0.00     0.116 C 
BRANCH   3   4
ATOM      4  N   UNL     1      25.405   3.600  15.628  1.00  0.00    -0.354 N 
ATOM      5  C   UNL     1      25.127   3.487  16.981  1.00  0.00     0.244 C 
ATOM      6  O   UNL     1      24.858   4.500  17.715  1.00  0.00    -0.273 OA
ATOM      7  H   UNL     1      25.601   2.574  15.185  1.00  0.00     0.163 HD
BRANCH   5   8
ATOM      8  C   UNL     1      25.096   2.221  17.708  1.00  0.00     0.191 C 
BRANCH   8   9
ATOM      9  C   UNL     1      24.847   2.406  19.219  1.00  0.00     0.151 C 
BRANCH   9  10
ATOM     10  N   UNL     1      23.473   2.279  19.537  1.00  0.00    -0.349 N 
ATOM     11  O   UNL     1      23.051   4.333  20.518  1.00  0.00    -0.269 OA
ATOM     12  C   UNL     1      22.631   3.237  20.127  1.00  0.00     0.251 C 
ATOM     13  H   UNL     1      23.026   1.340  19.273  1.00  0.00     0.163 HD
BRANCH  12  14
ATOM     14  C   UNL     1      21.210   2.825  20.228  1.00  0.00     0.040 A 
ATOM     15  C   UNL     1      20.418   3.274  21.249  1.00  0.00     0.014 A 
ATOM     16  C   UNL     1      20.679   2.072  19.227  1.00  0.00     0.021 A 
ATOM     17  C   UNL     1      19.051   2.954  21.262  1.00  0.00     0.001 A 
ATOM     18  C   UNL     1      19.308   1.741  19.223  1.00  0.00    -0.010 A 
ATOM     19  C   UNL     1      18.526   2.195  20.247  1.00  0.00     0.007 A 
BRANCH  18  20
ATOM     20  C   UNL     1      18.757   0.924  18.148  1.00  0.00     0.265 C 
BRANCH  20  21
ATOM     21  O   UNL     1      18.368   1.742  17.062  1.00  0.00    -0.488 OA
BRANCH  21  22
ATOM     22  C   UNL     1      18.998   1.543  15.823  1.00  0.00     0.132 A 
ATOM     23  C   UNL     1      18.253   1.325  14.704  1.00  0.00     0.081 A 
ATOM     24  C   UNL     1      20.366   1.575  15.790  1.00  0.00     0.047 A 
ATOM     25  C   UNL     1      18.901   1.129  13.473  1.00  0.00     0.018 A 
ATOM     26  C   UNL     1      21.011   1.377  14.572  1.00  0.00     0.004 A 
ATOM     27  C   UNL     1      20.268   1.163  13.458  1.00  0.00     0.001 A 
BRANCH  23  28
ATOM     28  C   UNL     1      16.798   1.280  14.697  1.00  0.00     0.252 C 
ATOM     29  N   UNL     1      16.103   0.515  15.694  1.00  0.00    -0.365 N 
ATOM     30  O   UNL     1      16.142   1.899  13.832  1.00  0.00    -0.269 OA
ATOM     31  H   UNL     1      15.841   0.960  16.583  1.00  0.00     0.159 HD
ATOM     32  H   UNL     1      15.873  -0.483  15.504  1.00  0.00     0.159 HD
ENDBRANCH  23  28
ENDBRANCH  21  22
ENDBRANCH  20  21
ENDBRANCH  18  20
ENDBRANCH  12  14
ENDBRANCH   9  10
ENDBRANCH   8   9
BRANCH   8  33
ATOM     33  N   UNL     1      24.058   1.291  17.295  1.00  0.00    -0.337 N 
ATOM     34  C   UNL     1      24.166  -0.100  17.266  1.00  0.00     0.270 C 
ATOM     35  H   UNL     1      23.152   1.750  16.997  1.00  0.00     0.164 HD
ATOM     36  O   UNL     1      25.167  -0.733  17.584  1.00  0.00    -0.268 OA
BRANCH  34  37
ATOM     37  C   UNL     1      22.963  -0.844  16.824  1.00  0.00     0.123 A 
ATOM     38  C   UNL     1      21.830  -1.141  17.589  1.00  0.00     0.058 A 
ATOM     39  N   UNL     1      22.709  -1.430  15.641  1.00  0.00    -0.273 N 
ATOM     40  C   UNL     1      20.936  -1.898  16.840  1.00  0.00     0.060 A 
ATOM     41  N   UNL     1      21.556  -2.028  15.655  1.00  0.00    -0.180 NA
ATOM     42  H   UNL     1      23.367  -1.414  14.806  1.00  0.00     0.190 HD
ATOM     43  C   UNL     1      19.629  -2.399  17.324  1.00  0.00     0.069 C 
ENDBRANCH  34  37
ENDBRANCH   8  33
ENDBRANCH   5   8
ENDBRANCH   3   4
ENDBRANCH   2   3
ENDBRANCH   1   2
BRANCH   1  44
ATOM     44  C   UNL     1      26.662   7.066  13.509  1.00  0.00     0.000 C 
BRANCH  44  45
ATOM     45  C   UNL     1      27.797   7.970  13.669  1.00  0.00     0.000 C 
BRANCH  45  46
ATOM     46  C   UNL     1      29.173   7.490  13.855  1.00  0.00     0.000 C 
BRANCH  46  47
ATOM     47  C   UNL     1      29.417   6.553  15.018  1.00  0.00     0.000 C 
BRANCH  47  48
ATOM     48  C   UNL     1      29.099   7.310  16.342  1.00  0.00     0.000 C 
BRANCH  48  49
ATOM     49  C   UNL     1      28.021   6.661  17.105  1.00  0.00     0.000 C 
BRANCH  49  50
ATOM     50  C   UNL     1      26.838   7.606  17.527  1.00  0.00     0.001 C 
BRANCH  50  51
ATOM     51  C   UNL     1      27.325   8.896  17.419  1.00  0.00     0.009 C 
BRANCH  51  52
ATOM     52  C   UNL     1      27.255  10.296  18.026  1.00  0.00    -0.012 C 
BRANCH  52  53
ATOM     53  C   UNL     1      26.998  11.054  16.680  1.00  0.00    -0.018 C 
ATOM     54  C   UNL     1      26.568  12.468  16.866  1.00  0.00     0.033 C 
ATOM     55  C   UNL     1      28.168  10.980  15.734  1.00  0.00     0.033 C 
ATOM     56  C   UNL     1      25.955  10.528  15.798  1.00  0.00     0.033 C 
ATOM     57  C   UNL     1      26.458  13.288  15.578  1.00  0.00     0.101 C 
ATOM     58  C   UNL     1      28.000  11.903  14.512  1.00  0.00     0.101 C 
ATOM     59  C   UNL     1      25.681  11.402  14.550  1.00  0.00     0.101 C 
ATOM     60  C   UNL     1      27.771  13.333  14.881  1.00  0.00     0.051 C 
ATOM     61  C   UNL     1      25.300  12.771  14.811  1.00  0.00     0.051 C 
ATOM     62  C   UNL     1      26.899  11.445  13.629  1.00  0.00     0.051 C 
BRANCH  57  63
ATOM     63  S   UNL     1      26.032  14.992  15.974  1.00  0.00     0.270 S 
ATOM     64  O   UNL     1      27.181  15.908  15.786  1.00  0.00    -0.199 OA
ATOM     65  O   UNL     1      24.962  15.378  14.981  1.00  0.00    -0.199 OA
BRANCH  63  66
ATOM     66  O   UNL     1      25.439  15.064  17.516  1.00  0.00    -0.285 OA
ATOM     67  H   UNL     1      24.722  15.756  17.556  1.00  0.00     0.234 HD
ENDBRANCH  63  66
ENDBRANCH  57  63
BRANCH  58  68
ATOM     68  S   UNL     1      29.511  11.863  13.543  1.00  0.00     0.270 S 
ATOM     69  O   UNL     1      29.203  11.796  12.089  1.00  0.00    -0.199 OA
ATOM     70  O   UNL     1      30.256  13.149  13.804  1.00  0.00    -0.199 OA
BRANCH  68  71
ATOM     71  O   UNL     1      30.518  10.627  14.013  1.00  0.00    -0.285 OA
ATOM     72  H   UNL     1      30.704  10.728  14.968  1.00  0.00     0.234 HD
ENDBRANCH  68  71
ENDBRANCH  58  68
BRANCH  59  73
ATOM     73  S   UNL     1      24.397  10.565  13.657  1.00  0.00     0.270 S 
ATOM     74  O   UNL     1      23.760   9.506  14.532  1.00  0.00    -0.199 OA
ATOM     75  O   UNL     1      23.309  11.545  13.316  1.00  0.00    -0.199 OA
BRANCH  73  76
ATOM     76  O   UNL     1      24.980   9.908  12.246  1.00  0.00    -0.285 OA
ATOM     77  H   UNL     1      25.874   9.552  12.382  1.00  0.00     0.234 HD
ENDBRANCH  73  76
ENDBRANCH  59  73
ENDBRANCH  52  53
BRANCH  52  78
ATOM     78  C   UNL     1      26.070  10.320  18.938  1.00  0.00    -0.018 C 
ATOM     79  C   UNL     1      25.755  11.742  19.437  1.00  0.00     0.033 C 
ATOM     80  C   UNL     1      26.158   9.625  20.234  1.00  0.00     0.033 C 
ATOM     81  C   UNL     1      24.781   9.840  18.330  1.00  0.00     0.033 C 
ATOM     82  C   UNL     1      24.468  11.842  20.232  1.00  0.00     0.101 C 
ATOM     83  C   UNL     1      24.863   9.705  21.075  1.00  0.00     0.101 C 
ATOM     84  C   UNL     1      23.544   9.988  19.205  1.00  0.00     0.101 C 
ATOM     85  C   UNL     1      24.557  11.093  21.539  1.00  0.00     0.051 C 
ATOM     86  C   UNL     1      23.252  11.428  19.494  1.00  0.00     0.051 C 
ATOM     87  C   UNL     1      23.690   9.123  20.396  1.00  0.00     0.051 C 
BRANCH  82  88
ATOM     88  S   UNL     1      24.285  13.576  20.672  1.00  0.00     0.270 S 
ATOM     89  O   UNL     1      23.840  13.613  22.099  1.00  0.00    -0.199 OA
ATOM     90  O   UNL     1      23.277  14.258  19.781  1.00  0.00    -0.199 OA
BRANCH  88  91
ATOM     91  O   UNL     1      25.755  14.320  20.490  1.00  0.00    -0.285 OA
ATOM     92  H   UNL     1      26.074  14.215  19.567  1.00  0.00     0.234 HD
ENDBRANCH  88  91
ENDBRANCH  82  88
BRANCH  83  93
ATOM     93  S   UNL     1      25.233   8.757  22.558  1.00  0.00     0.270 S 
ATOM     94  O   UNL     1      26.612   9.129  23.072  1.00  0.00    -0.199 OA
ATOM     95  O   UNL     1      24.276   9.128  23.645  1.00  0.00    -0.199 OA
BRANCH  93  96
ATOM     96  O   UNL     1      25.259   7.137  22.206  1.00  0.00    -0.285 OA
ATOM     97  H   UNL     1      25.438   7.013  21.247  1.00  0.00     0.234 HD
ENDBRANCH  93  96
ENDBRANCH  83  93
BRANCH  84  98
ATOM     98  S   UNL     1      22.128   9.381  18.286  1.00  0.00     0.270 S 
ATOM     99  O   UNL     1      22.573   8.212  17.480  1.00  0.00    -0.199 OA
ATOM    100  O   UNL     1      21.549  10.438  17.396  1.00  0.00    -0.199 OA
BRANCH  98 101
ATOM    101  O   UNL     1      20.942   8.855  19.347  1.00  0.00    -0.285 OA
ATOM    102  H   UNL     1      20.109   8.577  18.865  1.00  0.00     0.234 HD
ENDBRANCH  98 101
ENDBRANCH  84  98
ENDBRANCH  52  78
BRANCH  52 103
ATOM    103  C   UNL     1      28.606  10.584  18.591  1.00  0.00    -0.018 C 
ATOM    104  C   UNL     1      28.782  11.740  19.534  1.00  0.00     0.033 C 
ATOM    105  C   UNL     1      29.096   9.372  19.381  1.00  0.00     0.033 C 
ATOM    106  C   UNL     1      29.711  10.769  17.640  1.00  0.00     0.033 C 
ATOM    107  C   UNL     1      30.105  11.777  20.256  1.00  0.00     0.101 C 
ATOM    108  C   UNL     1      30.480   9.504  20.006  1.00  0.00     0.101 C 
ATOM    109  C   UNL     1      31.111  10.777  18.276  1.00  0.00     0.101 C 
ATOM    110  C   UNL     1      30.452  10.575  21.029  1.00  0.00     0.051 C 
ATOM    111  C   UNL     1      31.272  11.946  19.262  1.00  0.00     0.051 C 
ATOM    112  C   UNL     1      31.523   9.573  18.975  1.00  0.00     0.051 C 
BRANCH 107 113
ATOM    113  S   UNL     1      30.082  13.263  21.253  1.00  0.00     0.270 S 
ATOM    114  O   UNL     1      28.773  13.992  21.054  1.00  0.00    -0.199 OA
ATOM    115  O   UNL     1      31.178  14.181  20.764  1.00  0.00    -0.199 OA
BRANCH 113 116
ATOM    116  O   UNL     1      30.279  12.924  22.871  1.00  0.00    -0.285 OA
ATOM    117  H   UNL     1      29.390  12.654  23.235  1.00  0.00     0.234 HD
ENDBRANCH 113 116
ENDBRANCH 107 113
BRANCH 108 118
ATOM    118  S   UNL     1      30.808   7.976  20.887  1.00  0.00     0.270 S 
ATOM    119  O   UNL     1      29.607   7.086  20.632  1.00  0.00    -0.199 OA
ATOM    120  O   UNL     1      32.059   7.317  20.423  1.00  0.00    -0.199 OA
BRANCH 118 121
ATOM    121  O   UNL     1      30.844   8.313  22.535  1.00  0.00    -0.285 OA
ATOM    122  H   UNL     1      30.421   9.166  22.714  1.00  0.00     0.234 HD
ENDBRANCH 118 121
ENDBRANCH 108 118
BRANCH 109 123
ATOM    123  S   UNL     1      32.298  11.111  16.967  1.00  0.00     0.270 S 
ATOM    124  O   UNL     1      33.672  11.237  17.570  1.00  0.00    -0.199 OA
ATOM    125  O   UNL     1      32.296   9.879  16.110  1.00  0.00    -0.199 OA
BRANCH 123 126
ATOM    126  O   UNL     1      31.843  12.463  16.118  1.00  0.00    -0.285 OA
ATOM    127  H   UNL     1      31.311  13.045  16.740  1.00  0.00     0.234 HD
ENDBRANCH 123 126
ENDBRANCH 109 123
ENDBRANCH  52 103
ENDBRANCH  51  52
ENDBRANCH  50  51
ENDBRANCH  49  50
ENDBRANCH  48  49
ENDBRANCH  47  48
ENDBRANCH  46  47
ENDBRANCH  45  46
ENDBRANCH  44  45
ENDBRANCH   1  44
TORSDOF 43
ENDMDL
