MODEL 1
REMARK VINA RESULT:   -10.635      0.000      0.000
REMARK INTER + INTRA:         -46.496
REMARK INTER:                 -35.815
REMARK INTRA:                 -10.681
REMARK UNBOUND:               -10.681
REMARK SMILES Cc1cc(OCC(=O)N[C@H](CNC(=O)c2cccc(COc3ccccc3C(N)=O)c2)C(=O)NCCCCCCCCCCCC([C@]23C[C@]4(S(=O)(=O)O)C[C@](S(=O)(=O)O)(C2)C[C@](S(=O)(=O)O)(C3)C4)([C@]23C[C@]4(S(=O)(=O)O)C[C@](S(=O)(=O)O)(C2)C[C@](S(=O)(=O)O)(C3)C4)[C@]23C[C@]4(S(=O)(=O)O)C[C@](S(=O)(=O)O)(C2)C[C@](S(=O)(=O)O)(C3)C4)c2c3c(c(=O)oc2c1)CCC3
REMARK SMILES IDX 37 1 36 2 35 3 34 4 32 5 33 6 10 8 11 9 12 10 14 11 13 12
REMARK SMILES IDX 15 14 16 15 31 16 17 17 19 18 18 19 20 20 21 21 22 22 27 23
REMARK SMILES IDX 23 24 26 25 24 26 25 27 28 28 29 29 30 30 9 33 7 34 8 36
REMARK SMILES IDX 6 37 5 38 4 39 3 40 113 41 2 42 119 43 114 44 1 45 120 46
REMARK SMILES IDX 118 47 115 48 123 49 116 50 121 51 122 52 117 53 38 54 39 55
REMARK SMILES IDX 40 56 41 57 42 58 43 59 44 60 45 61 46 62 69 63 82 64 89 65
REMARK SMILES IDX 70 66 77 67 84 68 71 69 83 70 76 71 90 72 78 73 79 74 80 75
REMARK SMILES IDX 81 76 85 78 86 79 87 80 88 81 72 83 73 84 74 85 75 86 47 88
REMARK SMILES IDX 48 89 60 90 67 91 49 92 55 93 62 94 54 95 68 96 61 97 50 98
REMARK SMILES IDX 51 99 52 100 53 101 56 103 57 104 58 105 59 106 63 108
REMARK SMILES IDX 64 109 65 110 66 111 91 113 104 114 111 115 92 116 99 117
REMARK SMILES IDX 106 118 93 119 105 120 98 121 112 122 100 123 101 124
REMARK SMILES IDX 102 125 103 126 107 128 108 129 109 130 110 131 94 133
REMARK SMILES IDX 95 134 96 135 97 136
REMARK H PARENT 34 7 12 13 29 31 29 32 9 35 81 77 88 82 75 87 53 102 59 107
REMARK H PARENT 66 112 103 127 110 132 97 137
REMARK Flexibility Score: inf
ROOT
ATOM      1  C   UNL     1      20.482   2.287  13.875  1.00  0.00     0.002 C 
ENDROOT
BRANCH   1   2
ATOM      2  C   UNL     1      19.152   1.665  13.958  1.00  0.00     0.021 C 
BRANCH   2   3
ATOM      3  C   UNL     1      18.889   0.287  13.524  1.00  0.00     0.116 C 
BRANCH   3   4
ATOM      4  N   UNL     1      19.804  -0.743  13.879  1.00  0.00    -0.354 N 
ATOM      5  C   UNL     1      19.910  -1.422  15.091  1.00  0.00     0.244 C 
ATOM      6  O   UNL     1      19.189  -1.156  16.070  1.00  0.00    -0.273 OA
ATOM      7  H   UNL     1      20.514  -1.054  13.126  1.00  0.00     0.163 HD
BRANCH   5   8
ATOM      8  C   UNL     1      20.903  -2.529  15.321  1.00  0.00     0.190 C 
BRANCH   8   9
ATOM      9  C   UNL     1      21.428  -2.632  16.679  1.00  0.00     0.151 C 
BRANCH   9  10
ATOM     10  N   UNL     1      21.965  -1.473  17.308  1.00  0.00    -0.349 N 
ATOM     11  O   UNL     1      23.947  -1.259  16.125  1.00  0.00    -0.269 OA
ATOM     12  C   UNL     1      23.171  -0.823  17.034  1.00  0.00     0.251 C 
ATOM     13  H   UNL     1      21.373  -1.028  18.109  1.00  0.00     0.163 HD
BRANCH  12  14
ATOM     14  C   UNL     1      23.613   0.355  17.734  1.00  0.00     0.040 A 
ATOM     15  C   UNL     1      24.936   0.764  17.667  1.00  0.00     0.014 A 
ATOM     16  C   UNL     1      22.758   1.143  18.454  1.00  0.00     0.021 A 
ATOM     17  C   UNL     1      25.338   1.910  18.303  1.00  0.00     0.001 A 
ATOM     18  C   UNL     1      23.147   2.314  19.109  1.00  0.00    -0.010 A 
ATOM     19  C   UNL     1      24.467   2.696  19.025  1.00  0.00     0.007 A 
BRANCH  18  20
ATOM     20  C   UNL     1      22.213   3.148  19.882  1.00  0.00     0.265 C 
BRANCH  20  21
ATOM     21  O   UNL     1      21.148   2.456  20.439  1.00  0.00    -0.488 OA
BRANCH  21  22
ATOM     22  C   UNL     1      19.896   2.399  19.901  1.00  0.00     0.132 A 
ATOM     23  C   UNL     1      18.872   3.004  20.649  1.00  0.00     0.081 A 
ATOM     24  C   UNL     1      19.600   1.795  18.706  1.00  0.00     0.047 A 
ATOM     25  C   UNL     1      17.589   2.972  20.149  1.00  0.00     0.018 A 
ATOM     26  C   UNL     1      18.290   1.795  18.254  1.00  0.00     0.004 A 
ATOM     27  C   UNL     1      17.289   2.374  18.961  1.00  0.00     0.001 A 
BRANCH  23  28
ATOM     28  C   UNL     1      19.190   3.637  21.909  1.00  0.00     0.252 C 
ATOM     29  N   UNL     1      19.961   2.922  22.862  1.00  0.00    -0.365 N 
ATOM     30  O   UNL     1      18.789   4.794  22.148  1.00  0.00    -0.269 OA
ATOM     31  H   UNL     1      19.541   2.457  23.690  1.00  0.00     0.159 HD
ATOM     32  H   UNL     1      21.007   2.875  22.698  1.00  0.00     0.159 HD
ENDBRANCH  23  28
ENDBRANCH  21  22
ENDBRANCH  20  21
ENDBRANCH  18  20
ENDBRANCH  12  14
ENDBRANCH   9  10
ENDBRANCH   8   9
BRANCH   8  33
ATOM     33  N   UNL     1      20.412  -3.748  14.770  1.00  0.00    -0.340 N 
ATOM     34  C   UNL     1      19.723  -4.695  15.557  1.00  0.00     0.258 C 
ATOM     35  H   UNL     1      20.598  -3.969  13.745  1.00  0.00     0.164 HD
ATOM     36  O   UNL     1      19.533  -4.461  16.794  1.00  0.00    -0.271 OA
BRANCH  34  37
ATOM     37  C   UNL     1      19.206  -5.965  14.974  1.00  0.00     0.329 C 
BRANCH  37  38
ATOM     38  O   UNL     1      17.814  -6.020  15.018  1.00  0.00    -0.483 OA
BRANCH  38  39
ATOM     39  C   UNL     1      17.058  -5.177  14.226  1.00  0.00     0.131 A 
ATOM     40  C   UNL     1      16.859  -3.841  14.507  1.00  0.00     0.050 A 
ATOM     41  C   UNL     1      16.492  -5.770  13.091  1.00  0.00     0.063 A 
ATOM     42  C   UNL     1      16.088  -3.065  13.664  1.00  0.00    -0.044 A 
ATOM     43  C   UNL     1      15.730  -4.990  12.262  1.00  0.00     0.142 A 
ATOM     44  C   UNL     1      16.717  -7.122  12.836  1.00  0.00    -0.023 A 
ATOM     45  C   UNL     1      15.868  -1.610  13.970  1.00  0.00     0.044 C 
ATOM     46  C   UNL     1      15.532  -3.651  12.550  1.00  0.00     0.051 A 
ATOM     47  O   UNL     1      15.185  -5.538  11.179  1.00  0.00    -0.422 OA
ATOM     48  C   UNL     1      16.126  -7.639  11.697  1.00  0.00     0.042 A 
ATOM     49  C   UNL     1      17.473  -8.177  13.527  1.00  0.00     0.037 C 
ATOM     50  C   UNL     1      15.375  -6.800  10.912  1.00  0.00     0.339 A 
ATOM     51  C   UNL     1      16.452  -9.089  11.548  1.00  0.00     0.044 C 
ATOM     52  C   UNL     1      17.683  -9.215  12.415  1.00  0.00     0.010 C 
ATOM     53  O   UNL     1      14.843  -7.286   9.875  1.00  0.00    -0.246 OA
ENDBRANCH  38  39
ENDBRANCH  37  38
ENDBRANCH  34  37
ENDBRANCH   8  33
ENDBRANCH   5   8
ENDBRANCH   3   4
ENDBRANCH   2   3
ENDBRANCH   1   2
BRANCH   1  54
ATOM     54  C   UNL     1      21.450   1.915  15.000  1.00  0.00     0.000 C 
BRANCH  54  55
ATOM     55  C   UNL     1      22.851   1.905  14.492  1.00  0.00     0.000 C 
BRANCH  55  56
ATOM     56  C   UNL     1      23.661   3.059  14.999  1.00  0.00     0.000 C 
BRANCH  56  57
ATOM     57  C   UNL     1      25.113   2.820  14.643  1.00  0.00     0.000 C 
BRANCH  57  58
ATOM     58  C   UNL     1      25.946   3.886  15.326  1.00  0.00     0.000 C 
BRANCH  58  59
ATOM     59  C   UNL     1      25.049   4.859  16.097  1.00  0.00     0.000 C 
BRANCH  59  60
ATOM     60  C   UNL     1      25.811   5.789  16.928  1.00  0.00     0.001 C 
BRANCH  60  61
ATOM     61  C   UNL     1      25.901   7.118  17.204  1.00  0.00     0.009 C 
BRANCH  61  62
ATOM     62  C   UNL     1      26.128   8.546  16.840  1.00  0.00    -0.012 C 
BRANCH  62  63
ATOM     63  C   UNL     1      26.953   9.112  18.004  1.00  0.00    -0.018 C 
ATOM     64  C   UNL     1      26.171   9.143  19.305  1.00  0.00     0.033 C 
ATOM     65  C   UNL     1      28.131   8.253  18.355  1.00  0.00     0.033 C 
ATOM     66  C   UNL     1      27.397  10.487  17.968  1.00  0.00     0.033 C 
ATOM     67  C   UNL     1      26.992   9.474  20.520  1.00  0.00     0.101 C 
ATOM     68  C   UNL     1      28.987   8.768  19.506  1.00  0.00     0.101 C 
ATOM     69  C   UNL     1      28.262  10.902  19.185  1.00  0.00     0.101 C 
ATOM     70  C   UNL     1      28.164   8.619  20.764  1.00  0.00     0.051 C 
ATOM     71  C   UNL     1      27.462  10.911  20.460  1.00  0.00     0.051 C 
ATOM     72  C   UNL     1      29.519  10.133  19.302  1.00  0.00     0.051 C 
BRANCH  67  73
ATOM     73  S   UNL     1      25.937   9.402  21.968  1.00  0.00     0.270 S 
ATOM     74  O   UNL     1      26.739   9.299  23.210  1.00  0.00    -0.199 OA
ATOM     75  O   UNL     1      25.222  10.742  22.012  1.00  0.00    -0.199 OA
BRANCH  73  76
ATOM     76  O   UNL     1      24.756   8.238  21.816  1.00  0.00    -0.285 OA
ATOM     77  H   UNL     1      25.222   7.406  21.498  1.00  0.00     0.234 HD
ENDBRANCH  73  76
ENDBRANCH  67  73
BRANCH  68  78
ATOM     78  S   UNL     1      30.375   7.657  19.693  1.00  0.00     0.270 S 
ATOM     79  O   UNL     1      30.378   7.047  21.045  1.00  0.00    -0.199 OA
ATOM     80  O   UNL     1      31.615   8.507  19.496  1.00  0.00    -0.199 OA
BRANCH  78  81
ATOM     81  O   UNL     1      30.365   6.487  18.473  1.00  0.00    -0.285 OA
ATOM     82  H   UNL     1      29.993   6.881  17.638  1.00  0.00     0.234 HD
ENDBRANCH  78  81
ENDBRANCH  68  78
BRANCH  69  83
ATOM     83  S   UNL     1      28.732  12.615  18.956  1.00  0.00     0.270 S 
ATOM     84  O   UNL     1      30.004  12.738  18.217  1.00  0.00    -0.199 OA
ATOM     85  O   UNL     1      28.970  13.226  20.330  1.00  0.00    -0.199 OA
BRANCH  83  86
ATOM     86  O   UNL     1      27.544  13.477  18.185  1.00  0.00    -0.285 OA
ATOM     87  H   UNL     1      26.826  13.691  18.823  1.00  0.00     0.234 HD
ENDBRANCH  83  86
ENDBRANCH  69  83
ENDBRANCH  62  63
BRANCH  62  88
ATOM     88  C   UNL     1      26.825   8.622  15.496  1.00  0.00    -0.018 C 
ATOM     89  C   UNL     1      28.253   8.141  15.491  1.00  0.00     0.033 C 
ATOM     90  C   UNL     1      26.732   9.815  14.671  1.00  0.00     0.033 C 
ATOM     91  C   UNL     1      26.358   7.475  14.589  1.00  0.00     0.033 C 
ATOM     92  C   UNL     1      28.859   8.032  14.082  1.00  0.00     0.101 C 
ATOM     93  C   UNL     1      27.534   9.780  13.355  1.00  0.00     0.101 C 
ATOM     94  C   UNL     1      26.792   7.555  13.186  1.00  0.00     0.101 C 
ATOM     95  C   UNL     1      28.951   9.429  13.506  1.00  0.00     0.051 C 
ATOM     96  C   UNL     1      28.259   7.081  13.158  1.00  0.00     0.051 C 
ATOM     97  C   UNL     1      26.776   8.808  12.443  1.00  0.00     0.051 C 
BRANCH  92  98
ATOM     98  S   UNL     1      30.552   7.484  14.328  1.00  0.00     0.270 S 
ATOM     99  O   UNL     1      30.852   7.357  15.800  1.00  0.00    -0.199 OA
ATOM    100  O   UNL     1      31.536   8.423  13.735  1.00  0.00    -0.199 OA
BRANCH  98 101
ATOM    101  O   UNL     1      30.774   5.975  13.618  1.00  0.00    -0.285 OA
ATOM    102  H   UNL     1      29.918   5.486  13.512  1.00  0.00     0.234 HD
ENDBRANCH  98 101
ENDBRANCH  92  98
BRANCH  93 103
ATOM    103  S   UNL     1      27.407  11.378  12.579  1.00  0.00     0.270 S 
ATOM    104  O   UNL     1      28.772  12.000  12.651  1.00  0.00    -0.199 OA
ATOM    105  O   UNL     1      27.054  11.252  11.126  1.00  0.00    -0.199 OA
BRANCH 103 106
ATOM    106  O   UNL     1      26.354  12.337  13.428  1.00  0.00    -0.285 OA
ATOM    107  H   UNL     1      25.793  12.900  12.855  1.00  0.00     0.234 HD
ENDBRANCH 103 106
ENDBRANCH  93 103
BRANCH  94 108
ATOM    108  S   UNL     1      25.914   6.324  12.223  1.00  0.00     0.270 S 
ATOM    109  O   UNL     1      25.868   6.857  10.801  1.00  0.00    -0.199 OA
ATOM    110  O   UNL     1      26.649   5.027  12.181  1.00  0.00    -0.199 OA
BRANCH 108 111
ATOM    111  O   UNL     1      24.340   6.186  12.741  1.00  0.00    -0.285 OA
ATOM    112  H   UNL     1      23.799   6.900  12.325  1.00  0.00     0.234 HD
ENDBRANCH 108 111
ENDBRANCH  94 108
ENDBRANCH  62  88
BRANCH  62 113
ATOM    113  C   UNL     1      24.749   9.236  16.822  1.00  0.00    -0.018 C 
ATOM    114  C   UNL     1      23.768   8.713  15.840  1.00  0.00     0.033 C 
ATOM    115  C   UNL     1      23.911   8.740  18.025  1.00  0.00     0.033 C 
ATOM    116  C   UNL     1      24.683  10.684  16.715  1.00  0.00     0.033 C 
ATOM    117  C   UNL     1      22.361   9.345  15.946  1.00  0.00     0.101 C 
ATOM    118  C   UNL     1      22.679   9.529  18.254  1.00  0.00     0.101 C 
ATOM    119  C   UNL     1      23.255  11.284  16.739  1.00  0.00     0.101 C 
ATOM    120  C   UNL     1      21.659   9.056  17.192  1.00  0.00     0.051 C 
ATOM    121  C   UNL     1      22.433  10.795  15.617  1.00  0.00     0.051 C 
ATOM    122  C   UNL     1      22.734  10.990  18.122  1.00  0.00     0.051 C 
BRANCH 117 123
ATOM    123  S   UNL     1      21.401   8.586  14.620  1.00  0.00     0.270 S 
ATOM    124  O   UNL     1      20.023   8.287  15.086  1.00  0.00    -0.199 OA
ATOM    125  O   UNL     1      22.071   7.274  14.252  1.00  0.00    -0.199 OA
BRANCH 123 126
ATOM    126  O   UNL     1      21.404   9.539  13.251  1.00  0.00    -0.285 OA
ATOM    127  H   UNL     1      20.518   9.847  12.970  1.00  0.00     0.234 HD
ENDBRANCH 123 126
ENDBRANCH 117 123
BRANCH 118 128
ATOM    128  S   UNL     1      21.938   9.093  19.810  1.00  0.00     0.270 S 
ATOM    129  O   UNL     1      20.448   9.161  19.708  1.00  0.00    -0.199 OA
ATOM    130  O   UNL     1      22.364   7.695  20.234  1.00  0.00    -0.199 OA
BRANCH 128 131
ATOM    131  O   UNL     1      22.434  10.143  21.010  1.00  0.00    -0.285 OA
ATOM    132  H   UNL     1      23.361  10.420  20.935  1.00  0.00     0.234 HD
ENDBRANCH 128 131
ENDBRANCH 118 128
BRANCH 119 133
ATOM    133  S   UNL     1      23.410  13.048  16.546  1.00  0.00     0.270 S 
ATOM    134  O   UNL     1      24.006  13.281  15.188  1.00  0.00    -0.199 OA
ATOM    135  O   UNL     1      22.087  13.739  16.710  1.00  0.00    -0.199 OA
BRANCH 133 136
ATOM    136  O   UNL     1      24.541  13.609  17.670  1.00  0.00    -0.285 OA
ATOM    137  H   UNL     1      24.279  14.483  18.061  1.00  0.00     0.234 HD
ENDBRANCH 133 136
ENDBRANCH 119 133
ENDBRANCH  62 113
ENDBRANCH  61  62
ENDBRANCH  60  61
ENDBRANCH  59  60
ENDBRANCH  58  59
ENDBRANCH  57  58
ENDBRANCH  56  57
ENDBRANCH  55  56
ENDBRANCH  54  55
ENDBRANCH   1  54
TORSDOF 45
ENDMDL
MODEL 2
REMARK VINA RESULT:   -10.623      2.459      9.017
REMARK INTER + INTRA:         -46.455
REMARK INTER:                 -37.226
REMARK INTRA:                  -9.229
REMARK UNBOUND:               -10.681
REMARK SMILES Cc1cc(OCC(=O)N[C@H](CNC(=O)c2cccc(COc3ccccc3C(N)=O)c2)C(=O)NCCCCCCCCCCCC([C@]23C[C@]4(S(=O)(=O)O)C[C@](S(=O)(=O)O)(C2)C[C@](S(=O)(=O)O)(C3)C4)([C@]23C[C@]4(S(=O)(=O)O)C[C@](S(=O)(=O)O)(C2)C[C@](S(=O)(=O)O)(C3)C4)[C@]23C[C@]4(S(=O)(=O)O)C[C@](S(=O)(=O)O)(C2)C[C@](S(=O)(=O)O)(C3)C4)c2c3c(c(=O)oc2c1)CCC3
REMARK SMILES IDX 37 1 36 2 35 3 34 4 32 5 33 6 10 8 11 9 12 10 14 11 13 12
REMARK SMILES IDX 15 14 16 15 31 16 17 17 19 18 18 19 20 20 21 21 22 22 27 23
REMARK SMILES IDX 23 24 26 25 24 26 25 27 28 28 29 29 30 30 9 33 7 34 8 36
REMARK SMILES IDX 6 37 5 38 4 39 3 40 113 41 2 42 119 43 114 44 1 45 120 46
REMARK SMILES IDX 118 47 115 48 123 49 116 50 121 51 122 52 117 53 38 54 39 55
REMARK SMILES IDX 40 56 41 57 42 58 43 59 44 60 45 61 46 62 69 63 82 64 89 65
REMARK SMILES IDX 70 66 77 67 84 68 71 69 83 70 76 71 90 72 78 73 79 74 80 75
REMARK SMILES IDX 81 76 85 78 86 79 87 80 88 81 72 83 73 84 74 85 75 86 47 88
REMARK SMILES IDX 48 89 60 90 67 91 49 92 55 93 62 94 54 95 68 96 61 97 50 98
REMARK SMILES IDX 51 99 52 100 53 101 56 103 57 104 58 105 59 106 63 108
REMARK SMILES IDX 64 109 65 110 66 111 91 113 104 114 111 115 92 116 99 117
REMARK SMILES IDX 106 118 93 119 105 120 98 121 112 122 100 123 101 124
REMARK SMILES IDX 102 125 103 126 107 128 108 129 109 130 110 131 94 133
REMARK SMILES IDX 95 134 96 135 97 136
REMARK H PARENT 34 7 12 13 29 31 29 32 9 35 81 77 88 82 75 87 53 102 59 107
REMARK H PARENT 66 112 103 127 110 132 97 137
REMARK Flexibility Score: inf
ROOT
ATOM      1  C   UNL     1      22.968  -1.194  17.335  1.00  0.00     0.002 C 
ENDROOT
BRANCH   1   2
ATOM      2  C   UNL     1      22.162  -1.944  16.359  1.00  0.00     0.021 C 
BRANCH   2   3
ATOM      3  C   UNL     1      20.993  -2.745  16.742  1.00  0.00     0.116 C 
BRANCH   3   4
ATOM      4  N   UNL     1      19.700  -2.349  16.301  1.00  0.00    -0.354 N 
ATOM      5  C   UNL     1      18.801  -3.063  15.512  1.00  0.00     0.244 C 
ATOM      6  O   UNL     1      19.067  -4.187  15.049  1.00  0.00    -0.273 OA
ATOM      7  H   UNL     1      19.352  -1.373  16.608  1.00  0.00     0.163 HD
BRANCH   5   8
ATOM      8  C   UNL     1      17.437  -2.539  15.153  1.00  0.00     0.190 C 
BRANCH   8   9
ATOM      9  C   UNL     1      16.336  -3.483  15.321  1.00  0.00     0.151 C 
BRANCH   9  10
ATOM     10  N   UNL     1      16.350  -4.707  14.592  1.00  0.00    -0.349 N 
ATOM     11  O   UNL     1      15.640  -3.947  12.520  1.00  0.00    -0.269 OA
ATOM     12  C   UNL     1      16.017  -4.917  13.252  1.00  0.00     0.251 C 
ATOM     13  H   UNL     1      16.653  -5.601  15.138  1.00  0.00     0.163 HD
BRANCH  12  14
ATOM     14  C   UNL     1      16.075  -6.207  12.614  1.00  0.00     0.040 A 
ATOM     15  C   UNL     1      16.451  -7.334  13.327  1.00  0.00     0.014 A 
ATOM     16  C   UNL     1      15.727  -6.392  11.304  1.00  0.00     0.021 A 
ATOM     17  C   UNL     1      16.462  -8.563  12.721  1.00  0.00     0.001 A 
ATOM     18  C   UNL     1      15.732  -7.635  10.668  1.00  0.00    -0.010 A 
ATOM     19  C   UNL     1      16.109  -8.738  11.401  1.00  0.00     0.007 A 
BRANCH  18  20
ATOM     20  C   UNL     1      15.357  -7.815   9.256  1.00  0.00     0.265 C 
BRANCH  20  21
ATOM     21  O   UNL     1      15.073  -9.125   8.898  1.00  0.00    -0.488 OA
BRANCH  21  22
ATOM     22  C   UNL     1      15.774  -9.845   7.976  1.00  0.00     0.132 A 
ATOM     23  C   UNL     1      15.034 -10.766   7.216  1.00  0.00     0.081 A 
ATOM     24  C   UNL     1      17.123  -9.718   7.766  1.00  0.00     0.047 A 
ATOM     25  C   UNL     1      15.696 -11.520   6.272  1.00  0.00     0.018 A 
ATOM     26  C   UNL     1      17.735 -10.504   6.802  1.00  0.00     0.004 A 
ATOM     27  C   UNL     1      17.038 -11.397   6.059  1.00  0.00     0.001 A 
BRANCH  23  28
ATOM     28  C   UNL     1      13.613 -10.897   7.443  1.00  0.00     0.252 C 
ATOM     29  N   UNL     1      12.719 -10.639   6.369  1.00  0.00    -0.365 N 
ATOM     30  O   UNL     1      13.184 -11.233   8.565  1.00  0.00    -0.269 OA
ATOM     31  H   UNL     1      12.191  -9.750   6.280  1.00  0.00     0.159 HD
ATOM     32  H   UNL     1      12.607 -11.402   5.642  1.00  0.00     0.159 HD
ENDBRANCH  23  28
ENDBRANCH  21  22
ENDBRANCH  20  21
ENDBRANCH  18  20
ENDBRANCH  12  14
ENDBRANCH   9  10
ENDBRANCH   8   9
BRANCH   8  33
ATOM     33  N   UNL     1      17.231  -1.261  15.747  1.00  0.00    -0.340 N 
ATOM     34  C   UNL     1      17.273  -0.073  14.987  1.00  0.00     0.258 C 
ATOM     35  H   UNL     1      17.073  -1.194  16.798  1.00  0.00     0.164 HD
ATOM     36  O   UNL     1      17.505  -0.137  13.737  1.00  0.00    -0.271 OA
BRANCH  34  37
ATOM     37  C   UNL     1      17.049   1.261  15.614  1.00  0.00     0.329 C 
BRANCH  37  38
ATOM     38  O   UNL     1      17.803   1.414  16.777  1.00  0.00    -0.483 OA
BRANCH  38  39
ATOM     39  C   UNL     1      19.176   1.545  16.704  1.00  0.00     0.131 A 
ATOM     40  C   UNL     1      19.898   1.374  15.540  1.00  0.00     0.050 A 
ATOM     41  C   UNL     1      19.810   1.873  17.908  1.00  0.00     0.063 A 
ATOM     42  C   UNL     1      21.271   1.522  15.552  1.00  0.00    -0.044 A 
ATOM     43  C   UNL     1      21.173   2.018  17.906  1.00  0.00     0.142 A 
ATOM     44  C   UNL     1      19.049   2.041  19.063  1.00  0.00    -0.023 A 
ATOM     45  C   UNL     1      22.059   1.333  14.286  1.00  0.00     0.044 C 
ATOM     46  C   UNL     1      21.892   1.843  16.737  1.00  0.00     0.051 A 
ATOM     47  O   UNL     1      21.791   2.329  19.042  1.00  0.00    -0.422 OA
ATOM     48  C   UNL     1      19.744   2.364  20.215  1.00  0.00     0.042 A 
ATOM     49  C   UNL     1      17.611   1.955  19.358  1.00  0.00     0.037 C 
ATOM     50  C   UNL     1      21.109   2.494  20.141  1.00  0.00     0.339 A 
ATOM     51  C   UNL     1      18.807   2.517  21.369  1.00  0.00     0.044 C 
ATOM     52  C   UNL     1      17.492   2.754  20.663  1.00  0.00     0.010 C 
ATOM     53  O   UNL     1      21.729   2.789  21.200  1.00  0.00    -0.246 OA
ENDBRANCH  38  39
ENDBRANCH  37  38
ENDBRANCH  34  37
ENDBRANCH   8  33
ENDBRANCH   5   8
ENDBRANCH   3   4
ENDBRANCH   2   3
ENDBRANCH   1   2
BRANCH   1  54
ATOM     54  C   UNL     1      24.417  -0.926  16.919  1.00  0.00     0.000 C 
BRANCH  54  55
ATOM     55  C   UNL     1      24.898   0.348  17.523  1.00  0.00     0.000 C 
BRANCH  55  56
ATOM     56  C   UNL     1      25.624   1.218  16.543  1.00  0.00     0.000 C 
BRANCH  56  57
ATOM     57  C   UNL     1      25.500   2.658  16.995  1.00  0.00     0.000 C 
BRANCH  57  58
ATOM     58  C   UNL     1      25.172   2.659  18.474  1.00  0.00     0.000 C 
BRANCH  58  59
ATOM     59  C   UNL     1      24.964   4.090  18.979  1.00  0.00     0.000 C 
BRANCH  59  60
ATOM     60  C   UNL     1      25.641   5.084  18.149  1.00  0.00     0.001 C 
BRANCH  60  61
ATOM     61  C   UNL     1      26.030   6.387  18.179  1.00  0.00     0.009 C 
BRANCH  61  62
ATOM     62  C   UNL     1      26.742   7.582  17.642  1.00  0.00    -0.012 C 
BRANCH  62  63
ATOM     63  C   UNL     1      26.151   8.764  18.423  1.00  0.00    -0.018 C 
ATOM     64  C   UNL     1      25.886   8.419  19.879  1.00  0.00     0.033 C 
ATOM     65  C   UNL     1      27.098   9.922  18.533  1.00  0.00     0.033 C 
ATOM     66  C   UNL     1      24.849   9.282  18.068  1.00  0.00     0.033 C 
ATOM     67  C   UNL     1      25.520   9.594  20.742  1.00  0.00     0.101 C 
ATOM     68  C   UNL     1      26.562  11.124  19.301  1.00  0.00     0.101 C 
ATOM     69  C   UNL     1      24.406  10.505  18.909  1.00  0.00     0.101 C 
ATOM     70  C   UNL     1      26.474  10.714  20.752  1.00  0.00     0.051 C 
ATOM     71  C   UNL     1      24.164  10.134  20.347  1.00  0.00     0.051 C 
ATOM     72  C   UNL     1      25.298  11.674  18.761  1.00  0.00     0.051 C 
BRANCH  67  73
ATOM     73  S   UNL     1      25.309   9.026  22.430  1.00  0.00     0.270 S 
ATOM     74  O   UNL     1      25.216   7.549  22.490  1.00  0.00    -0.199 OA
ATOM     75  O   UNL     1      26.587   9.420  23.151  1.00  0.00    -0.199 OA
BRANCH  73  76
ATOM     76  O   UNL     1      24.065   9.823  23.199  1.00  0.00    -0.285 OA
ATOM     77  H   UNL     1      24.105  10.776  22.883  1.00  0.00     0.234 HD
ENDBRANCH  73  76
ENDBRANCH  67  73
BRANCH  68  78
ATOM     78  S   UNL     1      27.799  12.413  19.228  1.00  0.00     0.270 S 
ATOM     79  O   UNL     1      28.035  12.832  17.825  1.00  0.00    -0.199 OA
ATOM     80  O   UNL     1      29.060  11.811  19.817  1.00  0.00    -0.199 OA
BRANCH  78  81
ATOM     81  O   UNL     1      27.355  13.715  20.209  1.00  0.00    -0.285 OA
ATOM     82  H   UNL     1      26.571  14.180  19.809  1.00  0.00     0.234 HD
ENDBRANCH  78  81
ENDBRANCH  68  78
BRANCH  69  83
ATOM     83  S   UNL     1      22.795  11.015  18.315  1.00  0.00     0.270 S 
ATOM     84  O   UNL     1      22.322  12.235  18.998  1.00  0.00    -0.199 OA
ATOM     85  O   UNL     1      21.798   9.915  18.656  1.00  0.00    -0.199 OA
BRANCH  83  86
ATOM     86  O   UNL     1      22.795  11.248  16.674  1.00  0.00    -0.285 OA
ATOM     87  H   UNL     1      23.361  12.021  16.452  1.00  0.00     0.234 HD
ENDBRANCH  83  86
ENDBRANCH  69  83
ENDBRANCH  62  63
BRANCH  62  88
ATOM     88  C   UNL     1      28.237   7.408  17.827  1.00  0.00    -0.018 C 
ATOM     89  C   UNL     1      28.838   6.240  17.088  1.00  0.00     0.033 C 
ATOM     90  C   UNL     1      28.843   7.488  19.145  1.00  0.00     0.033 C 
ATOM     91  C   UNL     1      29.000   8.433  16.976  1.00  0.00     0.033 C 
ATOM     92  C   UNL     1      30.375   6.217  17.123  1.00  0.00     0.101 C 
ATOM     93  C   UNL     1      30.363   7.236  19.197  1.00  0.00     0.101 C 
ATOM     94  C   UNL     1      30.447   8.516  17.225  1.00  0.00     0.101 C 
ATOM     95  C   UNL     1      30.804   5.991  18.557  1.00  0.00     0.051 C 
ATOM     96  C   UNL     1      31.084   7.319  16.491  1.00  0.00     0.051 C 
ATOM     97  C   UNL     1      31.002   8.483  18.572  1.00  0.00     0.051 C 
BRANCH  92  98
ATOM     98  S   UNL     1      30.853   4.738  16.223  1.00  0.00     0.270 S 
ATOM     99  O   UNL     1      29.642   3.893  15.923  1.00  0.00    -0.199 OA
ATOM    100  O   UNL     1      31.819   3.907  16.985  1.00  0.00    -0.199 OA
BRANCH  98 101
ATOM    101  O   UNL     1      31.568   5.163  14.760  1.00  0.00    -0.285 OA
ATOM    102  H   UNL     1      31.327   6.084  14.485  1.00  0.00     0.234 HD
ENDBRANCH  98 101
ENDBRANCH  92  98
BRANCH  93 103
ATOM    103  S   UNL     1      30.872   7.230  20.903  1.00  0.00     0.270 S 
ATOM    104  O   UNL     1      29.901   8.103  21.644  1.00  0.00    -0.199 OA
ATOM    105  O   UNL     1      30.775   5.855  21.496  1.00  0.00    -0.199 OA
BRANCH 103 106
ATOM    106  O   UNL     1      32.384   7.898  21.044  1.00  0.00    -0.285 OA
ATOM    107  H   UNL     1      32.991   7.371  21.605  1.00  0.00     0.234 HD
ENDBRANCH 103 106
ENDBRANCH  93 103
BRANCH  94 108
ATOM    108  S   UNL     1      31.112   9.953  16.383  1.00  0.00     0.270 S 
ATOM    109  O   UNL     1      32.623   9.846  16.499  1.00  0.00    -0.199 OA
ATOM    110  O   UNL     1      30.783   9.944  14.929  1.00  0.00    -0.199 OA
BRANCH 108 111
ATOM    111  O   UNL     1      30.663  11.351  17.163  1.00  0.00    -0.285 OA
ATOM    112  H   UNL     1      30.892  11.274  18.120  1.00  0.00     0.234 HD
ENDBRANCH 108 111
ENDBRANCH  94 108
ENDBRANCH  62  88
BRANCH  62 113
ATOM    113  C   UNL     1      26.349   7.717  16.157  1.00  0.00    -0.018 C 
ATOM    114  C   UNL     1      26.493   6.496  15.328  1.00  0.00     0.033 C 
ATOM    115  C   UNL     1      24.807   7.705  16.030  1.00  0.00     0.033 C 
ATOM    116  C   UNL     1      26.919   8.799  15.370  1.00  0.00     0.033 C 
ATOM    117  C   UNL     1      25.966   6.641  13.882  1.00  0.00     0.101 C 
ATOM    118  C   UNL     1      24.319   8.092  14.686  1.00  0.00     0.101 C 
ATOM    119  C   UNL     1      26.436   8.869  13.899  1.00  0.00     0.101 C 
ATOM    120  C   UNL     1      24.526   6.856  13.780  1.00  0.00     0.051 C 
ATOM    121  C   UNL     1      26.780   7.649  13.148  1.00  0.00     0.051 C 
ATOM    122  C   UNL     1      24.971   9.206  13.987  1.00  0.00     0.051 C 
BRANCH 117 123
ATOM    123  S   UNL     1      26.312   5.057  13.091  1.00  0.00     0.270 S 
ATOM    124  O   UNL     1      26.161   5.169  11.619  1.00  0.00    -0.199 OA
ATOM    125  O   UNL     1      25.292   4.051  13.596  1.00  0.00    -0.199 OA
BRANCH 123 126
ATOM    126  O   UNL     1      27.819   4.484  13.522  1.00  0.00    -0.285 OA
ATOM    127  H   UNL     1      28.561   4.877  13.018  1.00  0.00     0.234 HD
ENDBRANCH 123 126
ENDBRANCH 117 123
BRANCH 118 128
ATOM    128  S   UNL     1      22.560   8.341  14.708  1.00  0.00     0.270 S 
ATOM    129  O   UNL     1      22.224   9.686  14.147  1.00  0.00    -0.199 OA
ATOM    130  O   UNL     1      21.854   7.256  13.907  1.00  0.00    -0.199 OA
BRANCH 128 131
ATOM    131  O   UNL     1      21.975   8.259  16.269  1.00  0.00    -0.285 OA
ATOM    132  H   UNL     1      21.520   7.428  16.479  1.00  0.00     0.234 HD
ENDBRANCH 128 131
ENDBRANCH 118 128
BRANCH 119 133
ATOM    133  S   UNL     1      27.291  10.223  13.118  1.00  0.00     0.270 S 
ATOM    134  O   UNL     1      26.701  10.371  11.746  1.00  0.00    -0.199 OA
ATOM    135  O   UNL     1      27.175  11.486  13.923  1.00  0.00    -0.199 OA
BRANCH 133 136
ATOM    136  O   UNL     1      28.908   9.778  12.901  1.00  0.00    -0.285 OA
ATOM    137  H   UNL     1      29.437   9.867  13.735  1.00  0.00     0.234 HD
ENDBRANCH 133 136
ENDBRANCH 119 133
ENDBRANCH  62 113
ENDBRANCH  61  62
ENDBRANCH  60  61
ENDBRANCH  59  60
ENDBRANCH  58  59
ENDBRANCH  57  58
ENDBRANCH  56  57
ENDBRANCH  55  56
ENDBRANCH  54  55
ENDBRANCH   1  54
TORSDOF 45
ENDMDL
MODEL 3
REMARK VINA RESULT:   -10.565      2.454      8.868
REMARK INTER + INTRA:         -46.259
REMARK INTER:                 -36.954
REMARK INTRA:                  -9.305
REMARK UNBOUND:               -10.681
REMARK SMILES Cc1cc(OCC(=O)N[C@H](CNC(=O)c2cccc(COc3ccccc3C(N)=O)c2)C(=O)NCCCCCCCCCCCC([C@]23C[C@]4(S(=O)(=O)O)C[C@](S(=O)(=O)O)(C2)C[C@](S(=O)(=O)O)(C3)C4)([C@]23C[C@]4(S(=O)(=O)O)C[C@](S(=O)(=O)O)(C2)C[C@](S(=O)(=O)O)(C3)C4)[C@]23C[C@]4(S(=O)(=O)O)C[C@](S(=O)(=O)O)(C2)C[C@](S(=O)(=O)O)(C3)C4)c2c3c(c(=O)oc2c1)CCC3
REMARK SMILES IDX 37 1 36 2 35 3 34 4 32 5 33 6 10 8 11 9 12 10 14 11 13 12
REMARK SMILES IDX 15 14 16 15 31 16 17 17 19 18 18 19 20 20 21 21 22 22 27 23
REMARK SMILES IDX 23 24 26 25 24 26 25 27 28 28 29 29 30 30 9 33 7 34 8 36
REMARK SMILES IDX 6 37 5 38 4 39 3 40 113 41 2 42 119 43 114 44 1 45 120 46
REMARK SMILES IDX 118 47 115 48 123 49 116 50 121 51 122 52 117 53 38 54 39 55
REMARK SMILES IDX 40 56 41 57 42 58 43 59 44 60 45 61 46 62 69 63 82 64 89 65
REMARK SMILES IDX 70 66 77 67 84 68 71 69 83 70 76 71 90 72 78 73 79 74 80 75
REMARK SMILES IDX 81 76 85 78 86 79 87 80 88 81 72 83 73 84 74 85 75 86 47 88
REMARK SMILES IDX 48 89 60 90 67 91 49 92 55 93 62 94 54 95 68 96 61 97 50 98
REMARK SMILES IDX 51 99 52 100 53 101 56 103 57 104 58 105 59 106 63 108
REMARK SMILES IDX 64 109 65 110 66 111 91 113 104 114 111 115 92 116 99 117
REMARK SMILES IDX 106 118 93 119 105 120 98 121 112 122 100 123 101 124
REMARK SMILES IDX 102 125 103 126 107 128 108 129 109 130 110 131 94 133
REMARK SMILES IDX 95 134 96 135 97 136
REMARK H PARENT 34 7 12 13 29 31 29 32 9 35 81 77 88 82 75 87 53 102 59 107
REMARK H PARENT 66 112 103 127 110 132 97 137
REMARK Flexibility Score: inf
ROOT
ATOM      1  C   UNL     1      23.051  -1.158  17.324  1.00  0.00     0.002 C 
ENDROOT
BRANCH   1   2
ATOM      2  C   UNL     1      22.262  -1.906  16.333  1.00  0.00     0.021 C 
BRANCH   2   3
ATOM      3  C   UNL     1      21.110  -2.740  16.699  1.00  0.00     0.116 C 
BRANCH   3   4
ATOM      4  N   UNL     1      19.809  -2.363  16.267  1.00  0.00    -0.354 N 
ATOM      5  C   UNL     1      18.908  -3.099  15.499  1.00  0.00     0.244 C 
ATOM      6  O   UNL     1      19.180  -4.227  15.051  1.00  0.00    -0.273 OA
ATOM      7  H   UNL     1      19.454  -1.386  16.562  1.00  0.00     0.163 HD
BRANCH   5   8
ATOM      8  C   UNL     1      17.536  -2.593  15.146  1.00  0.00     0.190 C 
BRANCH   8   9
ATOM      9  C   UNL     1      16.445  -3.544  15.343  1.00  0.00     0.151 C 
BRANCH   9  10
ATOM     10  N   UNL     1      16.443  -4.764  14.608  1.00  0.00    -0.349 N 
ATOM     11  O   UNL     1      15.626  -4.005  12.576  1.00  0.00    -0.269 OA
ATOM     12  C   UNL     1      16.050  -4.972  13.284  1.00  0.00     0.251 C 
ATOM     13  H   UNL     1      16.784  -5.656  15.134  1.00  0.00     0.163 HD
BRANCH  12  14
ATOM     14  C   UNL     1      16.097  -6.258  12.637  1.00  0.00     0.040 A 
ATOM     15  C   UNL     1      16.507  -7.386  13.330  1.00  0.00     0.014 A 
ATOM     16  C   UNL     1      15.705  -6.439  11.338  1.00  0.00     0.021 A 
ATOM     17  C   UNL     1      16.508  -8.611  12.717  1.00  0.00     0.001 A 
ATOM     18  C   UNL     1      15.698  -7.678  10.695  1.00  0.00    -0.010 A 
ATOM     19  C   UNL     1      16.110  -8.782  11.409  1.00  0.00     0.007 A 
BRANCH  18  20
ATOM     20  C   UNL     1      15.276  -7.854   9.296  1.00  0.00     0.265 C 
BRANCH  20  21
ATOM     21  O   UNL     1      15.018  -9.168   8.933  1.00  0.00    -0.488 OA
BRANCH  21  22
ATOM     22  C   UNL     1      15.741  -9.874   8.017  1.00  0.00     0.132 A 
ATOM     23  C   UNL     1      15.033 -10.839   7.281  1.00  0.00     0.081 A 
ATOM     24  C   UNL     1      17.081  -9.695   7.793  1.00  0.00     0.047 A 
ATOM     25  C   UNL     1      15.719 -11.581   6.344  1.00  0.00     0.018 A 
ATOM     26  C   UNL     1      17.717 -10.471   6.836  1.00  0.00     0.004 A 
ATOM     27  C   UNL     1      17.052 -11.406   6.115  1.00  0.00     0.001 A 
BRANCH  23  28
ATOM     28  C   UNL     1      13.621 -11.025   7.523  1.00  0.00     0.252 C 
ATOM     29  N   UNL     1      12.692 -10.589   6.542  1.00  0.00    -0.365 N 
ATOM     30  O   UNL     1      13.231 -11.563   8.579  1.00  0.00    -0.269 OA
ATOM     31  H   UNL     1      12.156  -9.705   6.630  1.00  0.00     0.159 HD
ATOM     32  H   UNL     1      12.561 -11.210   5.693  1.00  0.00     0.159 HD
ENDBRANCH  23  28
ENDBRANCH  21  22
ENDBRANCH  20  21
ENDBRANCH  18  20
ENDBRANCH  12  14
ENDBRANCH   9  10
ENDBRANCH   8   9
BRANCH   8  33
ATOM     33  N   UNL     1      17.325  -1.306  15.720  1.00  0.00    -0.340 N 
ATOM     34  C   UNL     1      17.452  -0.124  14.961  1.00  0.00     0.258 C 
ATOM     35  H   UNL     1      17.097  -1.230  16.757  1.00  0.00     0.164 HD
ATOM     36  O   UNL     1      17.767  -0.201  13.729  1.00  0.00    -0.271 OA
BRANCH  34  37
ATOM     37  C   UNL     1      17.223   1.218  15.565  1.00  0.00     0.329 C 
BRANCH  37  38
ATOM     38  O   UNL     1      17.946   1.379  16.746  1.00  0.00    -0.483 OA
BRANCH  38  39
ATOM     39  C   UNL     1      19.314   1.561  16.705  1.00  0.00     0.131 A 
ATOM     40  C   UNL     1      20.070   1.411  15.560  1.00  0.00     0.050 A 
ATOM     41  C   UNL     1      19.908   1.916  17.922  1.00  0.00     0.063 A 
ATOM     42  C   UNL     1      21.436   1.610  15.603  1.00  0.00    -0.044 A 
ATOM     43  C   UNL     1      21.263   2.110  17.952  1.00  0.00     0.142 A 
ATOM     44  C   UNL     1      19.114   2.060  19.059  1.00  0.00    -0.023 A 
ATOM     45  C   UNL     1      22.260   1.445  14.356  1.00  0.00     0.044 C 
ATOM     46  C   UNL     1      22.016   1.957  16.800  1.00  0.00     0.051 A 
ATOM     47  O   UNL     1      21.843   2.448  19.100  1.00  0.00    -0.422 OA
ATOM     48  C   UNL     1      19.769   2.412  20.225  1.00  0.00     0.042 A 
ATOM     49  C   UNL     1      17.673   1.922  19.320  1.00  0.00     0.037 C 
ATOM     50  C   UNL     1      21.130   2.592  20.182  1.00  0.00     0.339 A 
ATOM     51  C   UNL     1      18.800   2.536  21.355  1.00  0.00     0.044 C 
ATOM     52  C   UNL     1      17.495   2.722  20.618  1.00  0.00     0.010 C 
ATOM     53  O   UNL     1      21.714   2.914  21.254  1.00  0.00    -0.246 OA
ENDBRANCH  38  39
ENDBRANCH  37  38
ENDBRANCH  34  37
ENDBRANCH   8  33
ENDBRANCH   5   8
ENDBRANCH   3   4
ENDBRANCH   2   3
ENDBRANCH   1   2
BRANCH   1  54
ATOM     54  C   UNL     1      24.493  -0.851  16.915  1.00  0.00     0.000 C 
BRANCH  54  55
ATOM     55  C   UNL     1      24.914   0.469  17.462  1.00  0.00     0.000 C 
BRANCH  55  56
ATOM     56  C   UNL     1      25.702   1.281  16.480  1.00  0.00     0.000 C 
BRANCH  56  57
ATOM     57  C   UNL     1      25.607   2.739  16.876  1.00  0.00     0.000 C 
BRANCH  57  58
ATOM     58  C   UNL     1      25.282   2.804  18.355  1.00  0.00     0.000 C 
BRANCH  58  59
ATOM     59  C   UNL     1      25.007   4.248  18.783  1.00  0.00     0.000 C 
BRANCH  59  60
ATOM     60  C   UNL     1      25.792   5.220  18.025  1.00  0.00     0.001 C 
BRANCH  60  61
ATOM     61  C   UNL     1      26.190   6.520  18.080  1.00  0.00     0.009 C 
BRANCH  61  62
ATOM     62  C   UNL     1      26.794   7.758  17.509  1.00  0.00    -0.012 C 
BRANCH  62  63
ATOM     63  C   UNL     1      26.191   8.897  18.341  1.00  0.00    -0.018 C 
ATOM     64  C   UNL     1      25.879   8.471  19.765  1.00  0.00     0.033 C 
ATOM     65  C   UNL     1      27.144  10.037  18.546  1.00  0.00     0.033 C 
ATOM     66  C   UNL     1      24.904   9.449  17.979  1.00  0.00     0.033 C 
ATOM     67  C   UNL     1      25.499   9.597  20.686  1.00  0.00     0.101 C 
ATOM     68  C   UNL     1      26.596  11.198  19.367  1.00  0.00     0.101 C 
ATOM     69  C   UNL     1      24.447  10.625  18.878  1.00  0.00     0.101 C 
ATOM     70  C   UNL     1      26.462  10.705  20.788  1.00  0.00     0.051 C 
ATOM     71  C   UNL     1      24.159  10.174  20.283  1.00  0.00     0.051 C 
ATOM     72  C   UNL     1      25.354  11.792  18.825  1.00  0.00     0.051 C 
BRANCH  67  73
ATOM     73  S   UNL     1      25.232   8.934  22.330  1.00  0.00     0.270 S 
ATOM     74  O   UNL     1      25.256   7.452  22.320  1.00  0.00    -0.199 OA
ATOM     75  O   UNL     1      26.429   9.391  23.147  1.00  0.00    -0.199 OA
BRANCH  73  76
ATOM     76  O   UNL     1      23.885   9.593  23.052  1.00  0.00    -0.285 OA
ATOM     77  H   UNL     1      24.006  10.591  23.016  1.00  0.00     0.234 HD
ENDBRANCH  73  76
ENDBRANCH  67  73
BRANCH  68  78
ATOM     78  S   UNL     1      27.846  12.475  19.407  1.00  0.00     0.270 S 
ATOM     79  O   UNL     1      29.012  12.041  20.215  1.00  0.00    -0.199 OA
ATOM     80  O   UNL     1      27.185  13.683  20.043  1.00  0.00    -0.199 OA
BRANCH  78  81
ATOM     81  O   UNL     1      28.295  12.913  17.837  1.00  0.00    -0.285 OA
ATOM     82  H   UNL     1      27.602  12.601  17.195  1.00  0.00     0.234 HD
ENDBRANCH  78  81
ENDBRANCH  68  78
BRANCH  69  83
ATOM     83  S   UNL     1      22.860  11.186  18.268  1.00  0.00     0.270 S 
ATOM     84  O   UNL     1      22.441  12.447  18.912  1.00  0.00    -0.199 OA
ATOM     85  O   UNL     1      21.816  10.142  18.643  1.00  0.00    -0.199 OA
BRANCH  83  86
ATOM     86  O   UNL     1      22.867  11.368  16.620  1.00  0.00    -0.285 OA
ATOM     87  H   UNL     1      23.770  11.190  16.274  1.00  0.00     0.234 HD
ENDBRANCH  83  86
ENDBRANCH  69  83
ENDBRANCH  62  63
BRANCH  62  88
ATOM     88  C   UNL     1      28.305   7.669  17.591  1.00  0.00    -0.018 C 
ATOM     89  C   UNL     1      28.864   7.590  18.988  1.00  0.00     0.033 C 
ATOM     90  C   UNL     1      29.151   8.546  16.799  1.00  0.00     0.033 C 
ATOM     91  C   UNL     1      28.774   6.248  17.244  1.00  0.00     0.033 C 
ATOM     92  C   UNL     1      30.371   7.287  19.030  1.00  0.00     0.101 C 
ATOM     93  C   UNL     1      30.668   8.389  17.020  1.00  0.00     0.101 C 
ATOM     94  C   UNL     1      30.225   6.080  17.075  1.00  0.00     0.101 C 
ATOM     95  C   UNL     1      31.099   8.468  18.421  1.00  0.00     0.051 C 
ATOM     96  C   UNL     1      30.822   6.012  18.495  1.00  0.00     0.051 C 
ATOM     97  C   UNL     1      31.037   7.054  16.360  1.00  0.00     0.051 C 
BRANCH  92  98
ATOM     98  S   UNL     1      30.811   7.279  20.772  1.00  0.00     0.270 S 
ATOM     99  O   UNL     1      30.787   5.872  21.311  1.00  0.00    -0.199 OA
ATOM    100  O   UNL     1      29.883   8.102  21.587  1.00  0.00    -0.199 OA
BRANCH  98 101
ATOM    101  O   UNL     1      32.366   7.889  20.972  1.00  0.00    -0.285 OA
ATOM    102  H   UNL     1      32.891   7.846  20.133  1.00  0.00     0.234 HD
ENDBRANCH  98 101
ENDBRANCH  92  98
BRANCH  93 103
ATOM    103  S   UNL     1      31.506   9.646  16.079  1.00  0.00     0.270 S 
ATOM    104  O   UNL     1      32.432   8.933  15.137  1.00  0.00    -0.199 OA
ATOM    105  O   UNL     1      30.542  10.434  15.240  1.00  0.00    -0.199 OA
BRANCH 103 106
ATOM    106  O   UNL     1      32.421  10.593  17.088  1.00  0.00    -0.285 OA
ATOM    107  H   UNL     1      32.612  11.481  16.720  1.00  0.00     0.234 HD
ENDBRANCH 103 106
ENDBRANCH  93 103
BRANCH  94 108
ATOM    108  S   UNL     1      30.556   4.460  16.382  1.00  0.00     0.270 S 
ATOM    109  O   UNL     1      31.158   3.635  17.507  1.00  0.00    -0.199 OA
ATOM    110  O   UNL     1      29.303   3.772  15.957  1.00  0.00    -0.199 OA
BRANCH 108 111
ATOM    111  O   UNL     1      31.705   4.558  15.183  1.00  0.00    -0.285 OA
ATOM    112  H   UNL     1      32.206   3.709  15.146  1.00  0.00     0.234 HD
ENDBRANCH 108 111
ENDBRANCH  94 108
ENDBRANCH  62  88
BRANCH  62 113
ATOM    113  C   UNL     1      26.295   7.880  16.055  1.00  0.00    -0.018 C 
ATOM    114  C   UNL     1      26.417   6.663  15.216  1.00  0.00     0.033 C 
ATOM    115  C   UNL     1      24.748   7.820  16.037  1.00  0.00     0.033 C 
ATOM    116  C   UNL     1      26.774   8.978  15.232  1.00  0.00     0.033 C 
ATOM    117  C   UNL     1      25.787   6.792  13.811  1.00  0.00     0.101 C 
ATOM    118  C   UNL     1      24.156   8.191  14.731  1.00  0.00     0.101 C 
ATOM    119  C   UNL     1      26.187   9.033  13.799  1.00  0.00     0.101 C 
ATOM    120  C   UNL     1      24.337   6.962  13.809  1.00  0.00     0.051 C 
ATOM    121  C   UNL     1      26.515   7.824  13.023  1.00  0.00     0.051 C 
ATOM    122  C   UNL     1      24.722   9.324  13.989  1.00  0.00     0.051 C 
BRANCH 117 123
ATOM    123  S   UNL     1      26.126   5.218  12.995  1.00  0.00     0.270 S 
ATOM    124  O   UNL     1      25.814   5.309  11.546  1.00  0.00    -0.199 OA
ATOM    125  O   UNL     1      25.217   4.169  13.610  1.00  0.00    -0.199 OA
BRANCH 123 126
ATOM    126  O   UNL     1      27.697   4.725  13.265  1.00  0.00    -0.285 OA
ATOM    127  H   UNL     1      28.368   5.429  13.151  1.00  0.00     0.234 HD
ENDBRANCH 123 126
ENDBRANCH 117 123
BRANCH 118 128
ATOM    128  S   UNL     1      22.396   8.385  14.876  1.00  0.00     0.270 S 
ATOM    129  O   UNL     1      21.977   9.708  14.319  1.00  0.00    -0.199 OA
ATOM    130  O   UNL     1      21.670   7.264  14.146  1.00  0.00    -0.199 OA
BRANCH 128 131
ATOM    131  O   UNL     1      21.928   8.313  16.476  1.00  0.00    -0.285 OA
ATOM    132  H   UNL     1      22.214   7.509  16.937  1.00  0.00     0.234 HD
ENDBRANCH 128 131
ENDBRANCH 118 128
BRANCH 119 133
ATOM    133  S   UNL     1      26.944  10.413  12.963  1.00  0.00     0.270 S 
ATOM    134  O   UNL     1      26.495  10.347  11.532  1.00  0.00    -0.199 OA
ATOM    135  O   UNL     1      26.579  11.717  13.611  1.00  0.00    -0.199 OA
BRANCH 133 136
ATOM    136  O   UNL     1      28.618  10.177  12.952  1.00  0.00    -0.285 OA
ATOM    137  H   UNL     1      29.115  11.027  12.829  1.00  0.00     0.234 HD
ENDBRANCH 133 136
ENDBRANCH 119 133
ENDBRANCH  62 113
ENDBRANCH  61  62
ENDBRANCH  60  61
ENDBRANCH  59  60
ENDBRANCH  58  59
ENDBRANCH  57  58
ENDBRANCH  56  57
ENDBRANCH  55  56
ENDBRANCH  54  55
ENDBRANCH   1  54
TORSDOF 45
ENDMDL
MODEL 4
REMARK VINA RESULT:   -10.493      2.294     10.070
REMARK INTER + INTRA:         -46.018
REMARK INTER:                 -36.421
REMARK INTRA:                  -9.597
REMARK UNBOUND:               -10.681
REMARK SMILES Cc1cc(OCC(=O)N[C@H](CNC(=O)c2cccc(COc3ccccc3C(N)=O)c2)C(=O)NCCCCCCCCCCCC([C@]23C[C@]4(S(=O)(=O)O)C[C@](S(=O)(=O)O)(C2)C[C@](S(=O)(=O)O)(C3)C4)([C@]23C[C@]4(S(=O)(=O)O)C[C@](S(=O)(=O)O)(C2)C[C@](S(=O)(=O)O)(C3)C4)[C@]23C[C@]4(S(=O)(=O)O)C[C@](S(=O)(=O)O)(C2)C[C@](S(=O)(=O)O)(C3)C4)c2c3c(c(=O)oc2c1)CCC3
REMARK SMILES IDX 37 1 36 2 35 3 34 4 32 5 33 6 10 8 11 9 12 10 14 11 13 12
REMARK SMILES IDX 15 14 16 15 31 16 17 17 19 18 18 19 20 20 21 21 22 22 27 23
REMARK SMILES IDX 23 24 26 25 24 26 25 27 28 28 29 29 30 30 9 33 7 34 8 36
REMARK SMILES IDX 6 37 5 38 4 39 3 40 113 41 2 42 119 43 114 44 1 45 120 46
REMARK SMILES IDX 118 47 115 48 123 49 116 50 121 51 122 52 117 53 38 54 39 55
REMARK SMILES IDX 40 56 41 57 42 58 43 59 44 60 45 61 46 62 69 63 82 64 89 65
REMARK SMILES IDX 70 66 77 67 84 68 71 69 83 70 76 71 90 72 78 73 79 74 80 75
REMARK SMILES IDX 81 76 85 78 86 79 87 80 88 81 72 83 73 84 74 85 75 86 47 88
REMARK SMILES IDX 48 89 60 90 67 91 49 92 55 93 62 94 54 95 68 96 61 97 50 98
REMARK SMILES IDX 51 99 52 100 53 101 56 103 57 104 58 105 59 106 63 108
REMARK SMILES IDX 64 109 65 110 66 111 91 113 104 114 111 115 92 116 99 117
REMARK SMILES IDX 106 118 93 119 105 120 98 121 112 122 100 123 101 124
REMARK SMILES IDX 102 125 103 126 107 128 108 129 109 130 110 131 94 133
REMARK SMILES IDX 95 134 96 135 97 136
REMARK H PARENT 34 7 12 13 29 31 29 32 9 35 81 77 88 82 75 87 53 102 59 107
REMARK H PARENT 66 112 103 127 110 132 97 137
REMARK Flexibility Score: inf
ROOT
ATOM      1  C   UNL     1      23.421  -1.040  17.421  1.00  0.00     0.002 C 
ENDROOT
BRANCH   1   2
ATOM      2  C   UNL     1      22.586  -1.780  16.462  1.00  0.00     0.021 C 
BRANCH   2   3
ATOM      3  C   UNL     1      21.460  -2.626  16.875  1.00  0.00     0.116 C 
BRANCH   3   4
ATOM      4  N   UNL     1      20.142  -2.286  16.462  1.00  0.00    -0.354 N 
ATOM      5  C   UNL     1      19.250  -3.047  15.710  1.00  0.00     0.244 C 
ATOM      6  O   UNL     1      19.545  -4.169  15.260  1.00  0.00    -0.273 OA
ATOM      7  H   UNL     1      19.766  -1.317  16.760  1.00  0.00     0.163 HD
BRANCH   5   8
ATOM      8  C   UNL     1      17.859  -2.580  15.376  1.00  0.00     0.190 C 
BRANCH   8   9
ATOM      9  C   UNL     1      16.806  -3.580  15.529  1.00  0.00     0.151 C 
BRANCH   9  10
ATOM     10  N   UNL     1      16.862  -4.774  14.756  1.00  0.00    -0.349 N 
ATOM     11  O   UNL     1      16.068  -3.976  12.729  1.00  0.00    -0.269 OA
ATOM     12  C   UNL     1      16.507  -4.952  13.416  1.00  0.00     0.251 C 
ATOM     13  H   UNL     1      17.220  -5.672  15.261  1.00  0.00     0.163 HD
BRANCH  12  14
ATOM     14  C   UNL     1      16.612  -6.213  12.729  1.00  0.00     0.040 A 
ATOM     15  C   UNL     1      17.512  -7.179  13.153  1.00  0.00     0.014 A 
ATOM     16  C   UNL     1      15.814  -6.537  11.666  1.00  0.00     0.021 A 
ATOM     17  C   UNL     1      17.574  -8.391  12.518  1.00  0.00     0.001 A 
ATOM     18  C   UNL     1      15.861  -7.766  11.006  1.00  0.00    -0.010 A 
ATOM     19  C   UNL     1      16.764  -8.707  11.450  1.00  0.00     0.007 A 
BRANCH  18  20
ATOM     20  C   UNL     1      14.996  -8.096   9.862  1.00  0.00     0.265 C 
BRANCH  20  21
ATOM     21  O   UNL     1      14.985  -9.440   9.517  1.00  0.00    -0.488 OA
BRANCH  21  22
ATOM     22  C   UNL     1      14.695  -9.917   8.272  1.00  0.00     0.132 A 
ATOM     23  C   UNL     1      15.714  -9.802   7.312  1.00  0.00     0.081 A 
ATOM     24  C   UNL     1      13.495 -10.482   7.927  1.00  0.00     0.047 A 
ATOM     25  C   UNL     1      15.470 -10.268   6.039  1.00  0.00     0.018 A 
ATOM     26  C   UNL     1      13.307 -10.934   6.630  1.00  0.00     0.004 A 
ATOM     27  C   UNL     1      14.278 -10.832   5.689  1.00  0.00     0.001 A 
BRANCH  23  28
ATOM     28  C   UNL     1      16.976  -9.204   7.681  1.00  0.00     0.252 C 
ATOM     29  N   UNL     1      17.182  -7.822   7.430  1.00  0.00    -0.365 N 
ATOM     30  O   UNL     1      17.867  -9.897   8.213  1.00  0.00    -0.269 OA
ATOM     31  H   UNL     1      17.739  -7.474   6.626  1.00  0.00     0.159 HD
ATOM     32  H   UNL     1      16.736  -7.138   8.105  1.00  0.00     0.159 HD
ENDBRANCH  23  28
ENDBRANCH  21  22
ENDBRANCH  20  21
ENDBRANCH  18  20
ENDBRANCH  12  14
ENDBRANCH   9  10
ENDBRANCH   8   9
BRANCH   8  33
ATOM     33  N   UNL     1      17.598  -1.329  16.006  1.00  0.00    -0.340 N 
ATOM     34  C   UNL     1      17.450  -0.140  15.262  1.00  0.00     0.258 C 
ATOM     35  H   UNL     1      17.545  -1.282  17.069  1.00  0.00     0.164 HD
ATOM     36  O   UNL     1      17.555  -0.177  13.994  1.00  0.00    -0.271 OA
BRANCH  34  37
ATOM     37  C   UNL     1      17.170   1.165  15.927  1.00  0.00     0.329 C 
BRANCH  37  38
ATOM     38  O   UNL     1      17.934   1.326  17.082  1.00  0.00    -0.483 OA
BRANCH  38  39
ATOM     39  C   UNL     1      19.298   1.528  16.991  1.00  0.00     0.131 A 
ATOM     40  C   UNL     1      20.019   1.359  15.826  1.00  0.00     0.050 A 
ATOM     41  C   UNL     1      19.924   1.926  18.178  1.00  0.00     0.063 A 
ATOM     42  C   UNL     1      21.382   1.580  15.820  1.00  0.00    -0.044 A 
ATOM     43  C   UNL     1      21.276   2.143  18.159  1.00  0.00     0.142 A 
ATOM     44  C   UNL     1      19.164   2.090  19.336  1.00  0.00    -0.023 A 
ATOM     45  C   UNL     1      22.169   1.394  14.552  1.00  0.00     0.044 C 
ATOM     46  C   UNL     1      21.994   1.970  16.988  1.00  0.00     0.051 A 
ATOM     47  O   UNL     1      21.887   2.521  19.278  1.00  0.00    -0.422 OA
ATOM     48  C   UNL     1      19.851   2.484  20.470  1.00  0.00     0.042 A 
ATOM     49  C   UNL     1      17.735   1.937  19.647  1.00  0.00     0.037 C 
ATOM     50  C   UNL     1      21.206   2.684  20.378  1.00  0.00     0.339 A 
ATOM     51  C   UNL     1      18.916   2.624  21.627  1.00  0.00     0.044 C 
ATOM     52  C   UNL     1      17.585   2.769  20.928  1.00  0.00     0.010 C 
ATOM     53  O   UNL     1      21.818   3.044  21.422  1.00  0.00    -0.246 OA
ENDBRANCH  38  39
ENDBRANCH  37  38
ENDBRANCH  34  37
ENDBRANCH   8  33
ENDBRANCH   5   8
ENDBRANCH   3   4
ENDBRANCH   2   3
ENDBRANCH   1   2
BRANCH   1  54
ATOM     54  C   UNL     1      24.751  -0.523  16.868  1.00  0.00     0.000 C 
BRANCH  54  55
ATOM     55  C   UNL     1      25.164   0.712  17.593  1.00  0.00     0.000 C 
BRANCH  55  56
ATOM     56  C   UNL     1      25.895   1.683  16.716  1.00  0.00     0.000 C 
BRANCH  56  57
ATOM     57  C   UNL     1      25.504   3.087  17.126  1.00  0.00     0.000 C 
BRANCH  57  58
ATOM     58  C   UNL     1      25.145   3.065  18.598  1.00  0.00     0.000 C 
BRANCH  58  59
ATOM     59  C   UNL     1      25.080   4.488  19.158  1.00  0.00     0.000 C 
BRANCH  59  60
ATOM     60  C   UNL     1      25.532   5.493  18.198  1.00  0.00     0.001 C 
BRANCH  60  61
ATOM     61  C   UNL     1      26.391   6.545  18.105  1.00  0.00     0.009 C 
BRANCH  61  62
ATOM     62  C   UNL     1      26.802   7.895  17.625  1.00  0.00    -0.012 C 
BRANCH  62  63
ATOM     63  C   UNL     1      26.468   7.887  16.127  1.00  0.00    -0.018 C 
ATOM     64  C   UNL     1      25.023   8.268  15.856  1.00  0.00     0.033 C 
ATOM     65  C   UNL     1      27.226   8.926  15.355  1.00  0.00     0.033 C 
ATOM     66  C   UNL     1      26.523   6.648  15.384  1.00  0.00     0.033 C 
ATOM     67  C   UNL     1      24.698   8.496  14.406  1.00  0.00     0.101 C 
ATOM     68  C   UNL     1      26.932   8.964  13.861  1.00  0.00     0.101 C 
ATOM     69  C   UNL     1      26.210   6.804  13.875  1.00  0.00     0.101 C 
ATOM     70  C   UNL     1      25.524   9.491  13.705  1.00  0.00     0.051 C 
ATOM     71  C   UNL     1      24.777   7.194  13.640  1.00  0.00     0.051 C 
ATOM     72  C   UNL     1      27.166   7.680  13.164  1.00  0.00     0.051 C 
BRANCH  67  73
ATOM     73  S   UNL     1      22.982   9.000  14.270  1.00  0.00     0.270 S 
ATOM     74  O   UNL     1      22.574   9.131  12.852  1.00  0.00    -0.199 OA
ATOM     75  O   UNL     1      22.178   7.853  14.860  1.00  0.00    -0.199 OA
BRANCH  73  76
ATOM     76  O   UNL     1      22.655  10.338  15.205  1.00  0.00    -0.285 OA
ATOM     77  H   UNL     1      21.896  10.078  15.811  1.00  0.00     0.234 HD
ENDBRANCH  73  76
ENDBRANCH  67  73
BRANCH  68  78
ATOM     78  S   UNL     1      28.001  10.194  13.126  1.00  0.00     0.270 S 
ATOM     79  O   UNL     1      27.407  10.720  11.872  1.00  0.00    -0.199 OA
ATOM     80  O   UNL     1      29.308   9.484  12.831  1.00  0.00    -0.199 OA
BRANCH  78  81
ATOM     81  O   UNL     1      28.333  11.427  14.233  1.00  0.00    -0.285 OA
ATOM     82  H   UNL     1      27.939  12.281  13.906  1.00  0.00     0.234 HD
ENDBRANCH  78  81
ENDBRANCH  68  78
BRANCH  69  83
ATOM     83  S   UNL     1      26.349   5.184  13.124  1.00  0.00     0.270 S 
ATOM     84  O   UNL     1      26.058   5.225  11.677  1.00  0.00    -0.199 OA
ATOM     85  O   UNL     1      25.293   4.283  13.751  1.00  0.00    -0.199 OA
BRANCH  83  86
ATOM     86  O   UNL     1      27.845   4.517  13.382  1.00  0.00    -0.285 OA
ATOM     87  H   UNL     1      28.157   4.749  14.285  1.00  0.00     0.234 HD
ENDBRANCH  83  86
ENDBRANCH  69  83
ENDBRANCH  62  63
BRANCH  62  88
ATOM     88  C   UNL     1      26.068   8.960  18.415  1.00  0.00    -0.018 C 
ATOM     89  C   UNL     1      24.583   9.025  18.168  1.00  0.00     0.033 C 
ATOM     90  C   UNL     1      26.586  10.315  18.506  1.00  0.00     0.033 C 
ATOM     91  C   UNL     1      25.881   8.509  19.870  1.00  0.00     0.033 C 
ATOM     92  C   UNL     1      23.841   9.964  19.134  1.00  0.00     0.101 C 
ATOM     93  C   UNL     1      25.712  11.312  19.293  1.00  0.00     0.101 C 
ATOM     94  C   UNL     1      25.376   9.534  20.795  1.00  0.00     0.101 C 
ATOM     95  C   UNL     1      24.311  11.378  18.861  1.00  0.00     0.051 C 
ATOM     96  C   UNL     1      23.857   9.630  20.550  1.00  0.00     0.051 C 
ATOM     97  C   UNL     1      25.861  10.907  20.765  1.00  0.00     0.051 C 
BRANCH  92  98
ATOM     98  S   UNL     1      22.118   9.908  18.630  1.00  0.00     0.270 S 
ATOM     99  O   UNL     1      21.746  11.170  17.896  1.00  0.00    -0.199 OA
ATOM    100  O   UNL     1      21.200   9.760  19.788  1.00  0.00    -0.199 OA
BRANCH  98 101
ATOM    101  O   UNL     1      21.867   8.607  17.594  1.00  0.00    -0.285 OA
ATOM    102  H   UNL     1      20.923   8.548  17.296  1.00  0.00     0.234 HD
ENDBRANCH  98 101
ENDBRANCH  92  98
BRANCH  93 103
ATOM    103  S   UNL     1      26.443  12.929  19.154  1.00  0.00     0.270 S 
ATOM    104  O   UNL     1      25.834  13.770  20.239  1.00  0.00    -0.199 OA
ATOM    105  O   UNL     1      27.921  12.884  19.407  1.00  0.00    -0.199 OA
BRANCH 103 106
ATOM    106  O   UNL     1      26.048  13.605  17.691  1.00  0.00    -0.285 OA
ATOM    107  H   UNL     1      26.139  12.983  16.939  1.00  0.00     0.234 HD
ENDBRANCH 103 106
ENDBRANCH  93 103
BRANCH  94 108
ATOM    108  S   UNL     1      25.513   8.932  22.479  1.00  0.00     0.270 S 
ATOM    109  O   UNL     1      25.473   7.416  22.388  1.00  0.00    -0.199 OA
ATOM    110  O   UNL     1      26.820   9.300  23.095  1.00  0.00    -0.199 OA
BRANCH 108 111
ATOM    111  O   UNL     1      24.194   9.399  23.378  1.00  0.00    -0.285 OA
ATOM    112  H   UNL     1      23.373   9.243  22.853  1.00  0.00     0.234 HD
ENDBRANCH 108 111
ENDBRANCH  94 108
ENDBRANCH  62  88
BRANCH  62 113
ATOM    113  C   UNL     1      28.332   7.992  17.796  1.00  0.00    -0.018 C 
ATOM    114  C   UNL     1      28.854   7.755  19.164  1.00  0.00     0.033 C 
ATOM    115  C   UNL     1      28.993   6.705  17.247  1.00  0.00     0.033 C 
ATOM    116  C   UNL     1      29.025   9.172  17.307  1.00  0.00     0.033 C 
ATOM    117  C   UNL     1      30.397   7.734  19.263  1.00  0.00     0.101 C 
ATOM    118  C   UNL     1      30.465   6.802  17.120  1.00  0.00     0.101 C 
ATOM    119  C   UNL     1      30.563   9.159  17.495  1.00  0.00     0.101 C 
ATOM    120  C   UNL     1      31.035   6.633  18.548  1.00  0.00     0.051 C 
ATOM    121  C   UNL     1      30.943   9.074  18.916  1.00  0.00     0.051 C 
ATOM    122  C   UNL     1      31.054   8.046  16.608  1.00  0.00     0.051 C 
BRANCH 117 123
ATOM    123  S   UNL     1      30.755   7.492  21.015  1.00  0.00     0.270 S 
ATOM    124  O   UNL     1      30.671   6.052  21.366  1.00  0.00    -0.199 OA
ATOM    125  O   UNL     1      29.700   8.236  21.814  1.00  0.00    -0.199 OA
BRANCH 123 126
ATOM    126  O   UNL     1      32.233   8.149  21.424  1.00  0.00    -0.285 OA
ATOM    127  H   UNL     1      33.002   7.581  21.211  1.00  0.00     0.234 HD
ENDBRANCH 123 126
ENDBRANCH 117 123
BRANCH 118 128
ATOM    128  S   UNL     1      31.107   5.415  16.215  1.00  0.00     0.270 S 
ATOM    129  O   UNL     1      32.005   5.888  15.116  1.00  0.00    -0.199 OA
ATOM    130  O   UNL     1      31.872   4.478  17.139  1.00  0.00    -0.199 OA
BRANCH 128 131
ATOM    131  O   UNL     1      29.865   4.530  15.538  1.00  0.00    -0.285 OA
ATOM    132  H   UNL     1      30.108   4.066  14.721  1.00  0.00     0.234 HD
ENDBRANCH 128 131
ENDBRANCH 118 128
BRANCH 119 133
ATOM    133  S   UNL     1      31.192  10.707  16.876  1.00  0.00     0.270 S 
ATOM    134  O   UNL     1      32.637  10.775  17.277  1.00  0.00    -0.199 OA
ATOM    135  O   UNL     1      31.011  10.821  15.390  1.00  0.00    -0.199 OA
BRANCH 133 136
ATOM    136  O   UNL     1      30.408  11.965  17.691  1.00  0.00    -0.285 OA
ATOM    137  H   UNL     1      30.915  12.816  17.641  1.00  0.00     0.234 HD
ENDBRANCH 133 136
ENDBRANCH 119 133
ENDBRANCH  62 113
ENDBRANCH  61  62
ENDBRANCH  60  61
ENDBRANCH  59  60
ENDBRANCH  58  59
ENDBRANCH  57  58
ENDBRANCH  56  57
ENDBRANCH  55  56
ENDBRANCH  54  55
ENDBRANCH   1  54
TORSDOF 45
ENDMDL
MODEL 5
REMARK VINA RESULT:   -10.484      2.383      8.900
REMARK INTER + INTRA:         -45.986
REMARK INTER:                 -36.071
REMARK INTRA:                  -9.915
REMARK UNBOUND:               -10.681
REMARK SMILES Cc1cc(OCC(=O)N[C@H](CNC(=O)c2cccc(COc3ccccc3C(N)=O)c2)C(=O)NCCCCCCCCCCCC([C@]23C[C@]4(S(=O)(=O)O)C[C@](S(=O)(=O)O)(C2)C[C@](S(=O)(=O)O)(C3)C4)([C@]23C[C@]4(S(=O)(=O)O)C[C@](S(=O)(=O)O)(C2)C[C@](S(=O)(=O)O)(C3)C4)[C@]23C[C@]4(S(=O)(=O)O)C[C@](S(=O)(=O)O)(C2)C[C@](S(=O)(=O)O)(C3)C4)c2c3c(c(=O)oc2c1)CCC3
REMARK SMILES IDX 37 1 36 2 35 3 34 4 32 5 33 6 10 8 11 9 12 10 14 11 13 12
REMARK SMILES IDX 15 14 16 15 31 16 17 17 19 18 18 19 20 20 21 21 22 22 27 23
REMARK SMILES IDX 23 24 26 25 24 26 25 27 28 28 29 29 30 30 9 33 7 34 8 36
REMARK SMILES IDX 6 37 5 38 4 39 3 40 113 41 2 42 119 43 114 44 1 45 120 46
REMARK SMILES IDX 118 47 115 48 123 49 116 50 121 51 122 52 117 53 38 54 39 55
REMARK SMILES IDX 40 56 41 57 42 58 43 59 44 60 45 61 46 62 69 63 82 64 89 65
REMARK SMILES IDX 70 66 77 67 84 68 71 69 83 70 76 71 90 72 78 73 79 74 80 75
REMARK SMILES IDX 81 76 85 78 86 79 87 80 88 81 72 83 73 84 74 85 75 86 47 88
REMARK SMILES IDX 48 89 60 90 67 91 49 92 55 93 62 94 54 95 68 96 61 97 50 98
REMARK SMILES IDX 51 99 52 100 53 101 56 103 57 104 58 105 59 106 63 108
REMARK SMILES IDX 64 109 65 110 66 111 91 113 104 114 111 115 92 116 99 117
REMARK SMILES IDX 106 118 93 119 105 120 98 121 112 122 100 123 101 124
REMARK SMILES IDX 102 125 103 126 107 128 108 129 109 130 110 131 94 133
REMARK SMILES IDX 95 134 96 135 97 136
REMARK H PARENT 34 7 12 13 29 31 29 32 9 35 81 77 88 82 75 87 53 102 59 107
REMARK H PARENT 66 112 103 127 110 132 97 137
REMARK Flexibility Score: inf
ROOT
ATOM      1  C   UNL     1      22.990  -1.158  17.336  1.00  0.00     0.002 C 
ENDROOT
BRANCH   1   2
ATOM      2  C   UNL     1      22.199  -1.879  16.326  1.00  0.00     0.021 C 
BRANCH   2   3
ATOM      3  C   UNL     1      21.049  -2.723  16.670  1.00  0.00     0.116 C 
BRANCH   3   4
ATOM      4  N   UNL     1      19.750  -2.349  16.227  1.00  0.00    -0.354 N 
ATOM      5  C   UNL     1      18.847  -3.097  15.475  1.00  0.00     0.244 C 
ATOM      6  O   UNL     1      19.113  -4.236  15.053  1.00  0.00    -0.273 OA
ATOM      7  H   UNL     1      19.401  -1.363  16.500  1.00  0.00     0.163 HD
BRANCH   5   8
ATOM      8  C   UNL     1      17.477  -2.592  15.108  1.00  0.00     0.190 C 
BRANCH   8   9
ATOM      9  C   UNL     1      16.386  -3.546  15.287  1.00  0.00     0.151 C 
BRANCH   9  10
ATOM     10  N   UNL     1      16.403  -4.768  14.556  1.00  0.00    -0.349 N 
ATOM     11  O   UNL     1      15.547  -4.033  12.530  1.00  0.00    -0.269 OA
ATOM     12  C   UNL     1      16.000  -4.989  13.236  1.00  0.00     0.251 C 
ATOM     13  H   UNL     1      16.769  -5.651  15.080  1.00  0.00     0.163 HD
BRANCH  12  14
ATOM     14  C   UNL     1      16.068  -6.275  12.592  1.00  0.00     0.040 A 
ATOM     15  C   UNL     1      16.379  -7.415  13.317  1.00  0.00     0.014 A 
ATOM     16  C   UNL     1      15.792  -6.444  11.263  1.00  0.00     0.021 A 
ATOM     17  C   UNL     1      16.399  -8.640  12.702  1.00  0.00     0.001 A 
ATOM     18  C   UNL     1      15.807  -7.682  10.618  1.00  0.00    -0.010 A 
ATOM     19  C   UNL     1      16.118  -8.798  11.363  1.00  0.00     0.007 A 
BRANCH  18  20
ATOM     20  C   UNL     1      15.510  -7.845   9.186  1.00  0.00     0.265 C 
BRANCH  20  21
ATOM     21  O   UNL     1      15.109  -9.122   8.822  1.00  0.00    -0.488 OA
BRANCH  21  22
ATOM     22  C   UNL     1      15.749  -9.903   7.904  1.00  0.00     0.132 A 
ATOM     23  C   UNL     1      14.988 -10.935   7.331  1.00  0.00     0.081 A 
ATOM     24  C   UNL     1      17.057  -9.734   7.531  1.00  0.00     0.047 A 
ATOM     25  C   UNL     1      15.589 -11.753   6.399  1.00  0.00     0.018 A 
ATOM     26  C   UNL     1      17.608 -10.588   6.589  1.00  0.00     0.004 A 
ATOM     27  C   UNL     1      16.891 -11.589   6.024  1.00  0.00     0.001 A 
BRANCH  23  28
ATOM     28  C   UNL     1      13.610 -11.109   7.729  1.00  0.00     0.252 C 
ATOM     29  N   UNL     1      13.318 -11.387   9.090  1.00  0.00    -0.365 N 
ATOM     30  O   UNL     1      12.696 -11.014   6.885  1.00  0.00    -0.269 OA
ATOM     31  H   UNL     1      13.091 -12.341   9.432  1.00  0.00     0.159 HD
ATOM     32  H   UNL     1      13.340 -10.570   9.765  1.00  0.00     0.159 HD
ENDBRANCH  23  28
ENDBRANCH  21  22
ENDBRANCH  20  21
ENDBRANCH  18  20
ENDBRANCH  12  14
ENDBRANCH   9  10
ENDBRANCH   8   9
BRANCH   8  33
ATOM     33  N   UNL     1      17.257  -1.309  15.687  1.00  0.00    -0.340 N 
ATOM     34  C   UNL     1      17.189  -0.140  14.900  1.00  0.00     0.258 C 
ATOM     35  H   UNL     1      17.173  -1.222  16.745  1.00  0.00     0.164 HD
ATOM     36  O   UNL     1      17.332  -0.226  13.638  1.00  0.00    -0.271 OA
BRANCH  34  37
ATOM     37  C   UNL     1      16.951   1.198  15.511  1.00  0.00     0.329 C 
BRANCH  37  38
ATOM     38  O   UNL     1      17.741   1.393  16.643  1.00  0.00    -0.483 OA
BRANCH  38  39
ATOM     39  C   UNL     1      19.111   1.526  16.522  1.00  0.00     0.131 A 
ATOM     40  C   UNL     1      19.791   1.358  15.332  1.00  0.00     0.050 A 
ATOM     41  C   UNL     1      19.787   1.853  17.703  1.00  0.00     0.063 A 
ATOM     42  C   UNL     1      21.163   1.509  15.295  1.00  0.00    -0.044 A 
ATOM     43  C   UNL     1      21.148   2.000  17.652  1.00  0.00     0.142 A 
ATOM     44  C   UNL     1      19.068   2.018  18.885  1.00  0.00    -0.023 A 
ATOM     45  C   UNL     1      21.906   1.324  14.001  1.00  0.00     0.044 C 
ATOM     46  C   UNL     1      21.825   1.828  16.457  1.00  0.00     0.051 A 
ATOM     47  O   UNL     1      21.807   2.310  18.766  1.00  0.00    -0.422 OA
ATOM     48  C   UNL     1      19.803   2.339  20.012  1.00  0.00     0.042 A 
ATOM     49  C   UNL     1      17.641   1.928  19.231  1.00  0.00     0.037 C 
ATOM     50  C   UNL     1      21.164   2.471  19.889  1.00  0.00     0.339 A 
ATOM     51  C   UNL     1      18.908   2.488  21.198  1.00  0.00     0.044 C 
ATOM     52  C   UNL     1      17.568   2.725  20.541  1.00  0.00     0.010 C 
ATOM     53  O   UNL     1      21.822   2.765  20.926  1.00  0.00    -0.246 OA
ENDBRANCH  38  39
ENDBRANCH  37  38
ENDBRANCH  34  37
ENDBRANCH   8  33
ENDBRANCH   5   8
ENDBRANCH   3   4
ENDBRANCH   2   3
ENDBRANCH   1   2
BRANCH   1  54
ATOM     54  C   UNL     1      24.417  -0.799  16.916  1.00  0.00     0.000 C 
BRANCH  54  55
ATOM     55  C   UNL     1      24.867   0.434  17.622  1.00  0.00     0.000 C 
BRANCH  55  56
ATOM     56  C   UNL     1      25.585   1.391  16.720  1.00  0.00     0.000 C 
BRANCH  56  57
ATOM     57  C   UNL     1      25.285   2.801  17.180  1.00  0.00     0.000 C 
BRANCH  57  58
ATOM     58  C   UNL     1      25.101   2.776  18.685  1.00  0.00     0.000 C 
BRANCH  58  59
ATOM     59  C   UNL     1      24.980   4.199  19.237  1.00  0.00     0.000 C 
BRANCH  59  60
ATOM     60  C   UNL     1      25.433   5.212  18.286  1.00  0.00     0.001 C 
BRANCH  60  61
ATOM     61  C   UNL     1      26.089   6.404  18.256  1.00  0.00     0.009 C 
BRANCH  61  62
ATOM     62  C   UNL     1      26.537   7.666  17.601  1.00  0.00    -0.012 C 
BRANCH  62  63
ATOM     63  C   UNL     1      28.062   7.665  17.768  1.00  0.00    -0.018 C 
ATOM     64  C   UNL     1      28.709   6.431  17.161  1.00  0.00     0.033 C 
ATOM     65  C   UNL     1      28.732   8.780  17.022  1.00  0.00     0.033 C 
ATOM     66  C   UNL     1      28.641   7.601  19.092  1.00  0.00     0.033 C 
ATOM     67  C   UNL     1      30.210   6.481  17.095  1.00  0.00     0.101 C 
ATOM     68  C   UNL     1      30.249   8.826  17.153  1.00  0.00     0.101 C 
ATOM     69  C   UNL     1      30.189   7.658  19.107  1.00  0.00     0.101 C 
ATOM     70  C   UNL     1      30.790   7.637  16.395  1.00  0.00     0.051 C 
ATOM     71  C   UNL     1      30.798   6.430  18.488  1.00  0.00     0.051 C 
ATOM     72  C   UNL     1      30.735   8.913  18.548  1.00  0.00     0.051 C 
BRANCH  67  73
ATOM     73  S   UNL     1      30.802   4.989  16.297  1.00  0.00     0.270 S 
ATOM     74  O   UNL     1      31.741   4.249  17.173  1.00  0.00    -0.199 OA
ATOM     75  O   UNL     1      29.574   4.111  16.121  1.00  0.00    -0.199 OA
BRANCH  73  76
ATOM     76  O   UNL     1      31.389   5.296  14.769  1.00  0.00    -0.285 OA
ATOM     77  H   UNL     1      30.595   5.272  14.153  1.00  0.00     0.234 HD
ENDBRANCH  73  76
ENDBRANCH  67  73
BRANCH  68  78
ATOM     78  S   UNL     1      30.828  10.272  16.276  1.00  0.00     0.270 S 
ATOM     79  O   UNL     1      31.590   9.880  15.065  1.00  0.00    -0.199 OA
ATOM     80  O   UNL     1      31.729  11.013  17.246  1.00  0.00    -0.199 OA
BRANCH  78  81
ATOM     81  O   UNL     1      29.536  11.296  15.904  1.00  0.00    -0.285 OA
ATOM     82  H   UNL     1      28.893  11.308  16.664  1.00  0.00     0.234 HD
ENDBRANCH  78  81
ENDBRANCH  68  78
BRANCH  69  83
ATOM     83  S   UNL     1      30.716   7.590  20.817  1.00  0.00     0.270 S 
ATOM     84  O   UNL     1      30.541   6.241  21.390  1.00  0.00    -0.199 OA
ATOM     85  O   UNL     1      29.819   8.521  21.623  1.00  0.00    -0.199 OA
BRANCH  83  86
ATOM     86  O   UNL     1      32.290   8.079  20.992  1.00  0.00    -0.285 OA
ATOM     87  H   UNL     1      32.866   7.553  20.393  1.00  0.00     0.234 HD
ENDBRANCH  83  86
ENDBRANCH  69  83
ENDBRANCH  62  63
BRANCH  62  88
ATOM     88  C   UNL     1      26.075   7.681  16.157  1.00  0.00    -0.018 C 
ATOM     89  C   UNL     1      24.667   8.173  15.944  1.00  0.00     0.033 C 
ATOM     90  C   UNL     1      26.309   6.542  15.285  1.00  0.00     0.033 C 
ATOM     91  C   UNL     1      26.686   8.879  15.416  1.00  0.00     0.033 C 
ATOM     92  C   UNL     1      24.307   8.377  14.463  1.00  0.00     0.101 C 
ATOM     93  C   UNL     1      25.738   6.666  13.858  1.00  0.00     0.101 C 
ATOM     94  C   UNL     1      26.493   8.892  13.959  1.00  0.00     0.101 C 
ATOM     95  C   UNL     1      24.315   7.019  13.792  1.00  0.00     0.051 C 
ATOM     96  C   UNL     1      25.051   9.379  13.715  1.00  0.00     0.051 C 
ATOM     97  C   UNL     1      26.637   7.688  13.150  1.00  0.00     0.051 C 
BRANCH  92  98
ATOM     98  S   UNL     1      22.595   8.922  14.456  1.00  0.00     0.270 S 
ATOM     99  O   UNL     1      22.441  10.173  15.283  1.00  0.00    -0.199 OA
ATOM    100  O   UNL     1      21.677   7.892  15.002  1.00  0.00    -0.199 OA
BRANCH  98 101
ATOM    101  O   UNL     1      22.112   9.273  12.883  1.00  0.00    -0.285 OA
ATOM    102  H   UNL     1      21.987   8.451  12.343  1.00  0.00     0.234 HD
ENDBRANCH  98 101
ENDBRANCH  92  98
BRANCH  93 103
ATOM    103  S   UNL     1      25.998   5.121  13.014  1.00  0.00     0.270 S 
ATOM    104  O   UNL     1      27.426   4.730  13.263  1.00  0.00    -0.199 OA
ATOM    105  O   UNL     1      25.135   4.034  13.586  1.00  0.00    -0.199 OA
BRANCH 103 106
ATOM    106  O   UNL     1      25.794   5.327  11.380  1.00  0.00    -0.285 OA
ATOM    107  H   UNL     1      25.463   4.524  10.926  1.00  0.00     0.234 HD
ENDBRANCH 103 106
ENDBRANCH  93 103
BRANCH  94 108
ATOM    108  S   UNL     1      27.518  10.174  13.237  1.00  0.00     0.270 S 
ATOM    109  O   UNL     1      27.057  10.320  11.796  1.00  0.00    -0.199 OA
ATOM    110  O   UNL     1      27.304  11.493  13.900  1.00  0.00    -0.199 OA
BRANCH 108 111
ATOM    111  O   UNL     1      29.111   9.697  13.191  1.00  0.00    -0.285 OA
ATOM    112  H   UNL     1      29.262   9.153  12.382  1.00  0.00     0.234 HD
ENDBRANCH 108 111
ENDBRANCH  94 108
ENDBRANCH  62  88
BRANCH  62 113
ATOM    113  C   UNL     1      25.945   8.836  18.414  1.00  0.00    -0.018 C 
ATOM    114  C   UNL     1      24.470   8.988  18.366  1.00  0.00     0.033 C 
ATOM    115  C   UNL     1      25.925   8.459  19.916  1.00  0.00     0.033 C 
ATOM    116  C   UNL     1      26.487  10.172  18.230  1.00  0.00     0.033 C 
ATOM    117  C   UNL     1      23.912  10.088  19.296  1.00  0.00     0.101 C 
ATOM    118  C   UNL     1      25.625   9.601  20.809  1.00  0.00     0.101 C 
ATOM    119  C   UNL     1      25.849  11.271  19.116  1.00  0.00     0.101 C 
ATOM    120  C   UNL     1      24.098   9.830  20.720  1.00  0.00     0.051 C 
ATOM    121  C   UNL     1      24.406  11.421  18.855  1.00  0.00     0.051 C 
ATOM    122  C   UNL     1      26.235  10.906  20.526  1.00  0.00     0.051 C 
BRANCH 117 123
ATOM    123  S   UNL     1      22.132  10.099  18.999  1.00  0.00     0.270 S 
ATOM    124  O   UNL     1      21.393  10.166  20.285  1.00  0.00    -0.199 OA
ATOM    125  O   UNL     1      21.766   8.796  18.310  1.00  0.00    -0.199 OA
BRANCH 123 126
ATOM    126  O   UNL     1      21.700  11.337  17.967  1.00  0.00    -0.285 OA
ATOM    127  H   UNL     1      20.752  11.579  17.999  1.00  0.00     0.234 HD
ENDBRANCH 123 126
ENDBRANCH 117 123
BRANCH 118 128
ATOM    128  S   UNL     1      25.913   9.158  22.506  1.00  0.00     0.270 S 
ATOM    129  O   UNL     1      25.125  10.051  23.411  1.00  0.00    -0.199 OA
ATOM    130  O   UNL     1      25.532   7.706  22.754  1.00  0.00    -0.199 OA
BRANCH 128 131
ATOM    131  O   UNL     1      27.530   9.314  22.887  1.00  0.00    -0.285 OA
ATOM    132  H   UNL     1      28.103   9.482  22.122  1.00  0.00     0.234 HD
ENDBRANCH 128 131
ENDBRANCH 118 128
BRANCH 119 133
ATOM    133  S   UNL     1      26.622  12.819  18.691  1.00  0.00     0.270 S 
ATOM    134  O   UNL     1      27.736  12.496  17.738  1.00  0.00    -0.199 OA
ATOM    135  O   UNL     1      25.634  13.784  18.102  1.00  0.00    -0.199 OA
BRANCH 133 136
ATOM    136  O   UNL     1      27.348  13.451  20.081  1.00  0.00    -0.285 OA
ATOM    137  H   UNL     1      26.684  13.836  20.709  1.00  0.00     0.234 HD
ENDBRANCH 133 136
ENDBRANCH 119 133
ENDBRANCH  62 113
ENDBRANCH  61  62
ENDBRANCH  60  61
ENDBRANCH  59  60
ENDBRANCH  58  59
ENDBRANCH  57  58
ENDBRANCH  56  57
ENDBRANCH  55  56
ENDBRANCH  54  55
ENDBRANCH   1  54
TORSDOF 45
ENDMDL
MODEL 6
REMARK VINA RESULT:   -10.472      2.279      8.618
REMARK INTER + INTRA:         -45.948
REMARK INTER:                 -36.369
REMARK INTRA:                  -9.579
REMARK UNBOUND:               -10.681
REMARK SMILES Cc1cc(OCC(=O)N[C@H](CNC(=O)c2cccc(COc3ccccc3C(N)=O)c2)C(=O)NCCCCCCCCCCCC([C@]23C[C@]4(S(=O)(=O)O)C[C@](S(=O)(=O)O)(C2)C[C@](S(=O)(=O)O)(C3)C4)([C@]23C[C@]4(S(=O)(=O)O)C[C@](S(=O)(=O)O)(C2)C[C@](S(=O)(=O)O)(C3)C4)[C@]23C[C@]4(S(=O)(=O)O)C[C@](S(=O)(=O)O)(C2)C[C@](S(=O)(=O)O)(C3)C4)c2c3c(c(=O)oc2c1)CCC3
REMARK SMILES IDX 37 1 36 2 35 3 34 4 32 5 33 6 10 8 11 9 12 10 14 11 13 12
REMARK SMILES IDX 15 14 16 15 31 16 17 17 19 18 18 19 20 20 21 21 22 22 27 23
REMARK SMILES IDX 23 24 26 25 24 26 25 27 28 28 29 29 30 30 9 33 7 34 8 36
REMARK SMILES IDX 6 37 5 38 4 39 3 40 113 41 2 42 119 43 114 44 1 45 120 46
REMARK SMILES IDX 118 47 115 48 123 49 116 50 121 51 122 52 117 53 38 54 39 55
REMARK SMILES IDX 40 56 41 57 42 58 43 59 44 60 45 61 46 62 69 63 82 64 89 65
REMARK SMILES IDX 70 66 77 67 84 68 71 69 83 70 76 71 90 72 78 73 79 74 80 75
REMARK SMILES IDX 81 76 85 78 86 79 87 80 88 81 72 83 73 84 74 85 75 86 47 88
REMARK SMILES IDX 48 89 60 90 67 91 49 92 55 93 62 94 54 95 68 96 61 97 50 98
REMARK SMILES IDX 51 99 52 100 53 101 56 103 57 104 58 105 59 106 63 108
REMARK SMILES IDX 64 109 65 110 66 111 91 113 104 114 111 115 92 116 99 117
REMARK SMILES IDX 106 118 93 119 105 120 98 121 112 122 100 123 101 124
REMARK SMILES IDX 102 125 103 126 107 128 108 129 109 130 110 131 94 133
REMARK SMILES IDX 95 134 96 135 97 136
REMARK H PARENT 34 7 12 13 29 31 29 32 9 35 81 77 88 82 75 87 53 102 59 107
REMARK H PARENT 66 112 103 127 110 132 97 137
REMARK Flexibility Score: inf
ROOT
ATOM      1  C   UNL     1      23.221  -1.104  17.343  1.00  0.00     0.002 C 
ENDROOT
BRANCH   1   2
ATOM      2  C   UNL     1      22.397  -1.843  16.373  1.00  0.00     0.021 C 
BRANCH   2   3
ATOM      3  C   UNL     1      21.231  -2.644  16.767  1.00  0.00     0.116 C 
BRANCH   3   4
ATOM      4  N   UNL     1      19.937  -2.266  16.313  1.00  0.00    -0.354 N 
ATOM      5  C   UNL     1      19.020  -3.027  15.591  1.00  0.00     0.244 C 
ATOM      6  O   UNL     1      19.267  -4.186  15.212  1.00  0.00    -0.273 OA
ATOM      7  H   UNL     1      19.605  -1.265  16.548  1.00  0.00     0.163 HD
BRANCH   5   8
ATOM      8  C   UNL     1      17.658  -2.515  15.208  1.00  0.00     0.190 C 
BRANCH   8   9
ATOM      9  C   UNL     1      16.551  -3.439  15.436  1.00  0.00     0.151 C 
BRANCH   9  10
ATOM     10  N   UNL     1      16.559  -4.708  14.788  1.00  0.00    -0.349 N 
ATOM     11  O   UNL     1      15.851  -4.080  12.672  1.00  0.00    -0.269 OA
ATOM     12  C   UNL     1      16.223  -5.002  13.464  1.00  0.00     0.251 C 
ATOM     13  H   UNL     1      16.858  -5.566  15.390  1.00  0.00     0.163 HD
BRANCH  12  14
ATOM     14  C   UNL     1      16.274  -6.330  12.910  1.00  0.00     0.040 A 
ATOM     15  C   UNL     1      16.732  -7.397  13.668  1.00  0.00     0.014 A 
ATOM     16  C   UNL     1      15.840  -6.613  11.644  1.00  0.00     0.021 A 
ATOM     17  C   UNL     1      16.737  -8.664  13.145  1.00  0.00     0.001 A 
ATOM     18  C   UNL     1      15.837  -7.896  11.093  1.00  0.00    -0.010 A 
ATOM     19  C   UNL     1      16.297  -8.937  11.869  1.00  0.00     0.007 A 
BRANCH  18  20
ATOM     20  C   UNL     1      15.369  -8.181   9.727  1.00  0.00     0.265 C 
BRANCH  20  21
ATOM     21  O   UNL     1      15.283  -9.531   9.418  1.00  0.00    -0.488 OA
BRANCH  21  22
ATOM     22  C   UNL     1      15.602 -10.070   8.206  1.00  0.00     0.132 A 
ATOM     23  C   UNL     1      16.897 -10.600   8.086  1.00  0.00     0.081 A 
ATOM     24  C   UNL     1      14.747 -10.113   7.135  1.00  0.00     0.047 A 
ATOM     25  C   UNL     1      17.269 -11.155   6.880  1.00  0.00     0.018 A 
ATOM     26  C   UNL     1      15.177 -10.683   5.947  1.00  0.00     0.004 A 
ATOM     27  C   UNL     1      16.422 -11.201   5.812  1.00  0.00     0.001 A 
BRANCH  23  28
ATOM     28  C   UNL     1      17.795 -10.551   9.217  1.00  0.00     0.252 C 
ATOM     29  N   UNL     1      17.788 -11.623  10.147  1.00  0.00    -0.365 N 
ATOM     30  O   UNL     1      18.563  -9.579   9.367  1.00  0.00    -0.269 OA
ATOM     31  H   UNL     1      17.310 -11.565  11.067  1.00  0.00     0.159 HD
ATOM     32  H   UNL     1      18.297 -12.509   9.866  1.00  0.00     0.159 HD
ENDBRANCH  23  28
ENDBRANCH  21  22
ENDBRANCH  20  21
ENDBRANCH  18  20
ENDBRANCH  12  14
ENDBRANCH   9  10
ENDBRANCH   8   9
BRANCH   8  33
ATOM     33  N   UNL     1      17.464  -1.203  15.729  1.00  0.00    -0.340 N 
ATOM     34  C   UNL     1      17.394  -0.073  14.887  1.00  0.00     0.258 C 
ATOM     35  H   UNL     1      17.403  -1.064  16.783  1.00  0.00     0.164 HD
ATOM     36  O   UNL     1      17.510  -0.221  13.628  1.00  0.00    -0.271 OA
BRANCH  34  37
ATOM     37  C   UNL     1      17.184   1.296  15.438  1.00  0.00     0.329 C 
BRANCH  37  38
ATOM     38  O   UNL     1      17.875   1.480  16.634  1.00  0.00    -0.483 OA
BRANCH  38  39
ATOM     39  C   UNL     1      19.251   1.604  16.630  1.00  0.00     0.131 A 
ATOM     40  C   UNL     1      20.028   1.450  15.500  1.00  0.00     0.050 A 
ATOM     41  C   UNL     1      19.828   1.906  17.870  1.00  0.00     0.063 A 
ATOM     42  C   UNL     1      21.400   1.590  15.581  1.00  0.00    -0.044 A 
ATOM     43  C   UNL     1      21.189   2.042  17.937  1.00  0.00     0.142 A 
ATOM     44  C   UNL     1      19.012   2.057  18.990  1.00  0.00    -0.023 A 
ATOM     45  C   UNL     1      22.247   1.419  14.351  1.00  0.00     0.044 C 
ATOM     46  C   UNL     1      21.964   1.884  16.801  1.00  0.00     0.051 A 
ATOM     47  O   UNL     1      21.754   2.329  19.107  1.00  0.00    -0.422 OA
ATOM     48  C   UNL     1      19.652   2.354  20.180  1.00  0.00     0.042 A 
ATOM     49  C   UNL     1      17.561   1.974  19.212  1.00  0.00     0.037 C 
ATOM     50  C   UNL     1      21.020   2.477  20.174  1.00  0.00     0.339 A 
ATOM     51  C   UNL     1      18.661   2.492  21.289  1.00  0.00     0.044 C 
ATOM     52  C   UNL     1      17.383   2.750  20.525  1.00  0.00     0.010 C 
ATOM     53  O   UNL     1      21.589   2.749  21.268  1.00  0.00    -0.246 OA
ENDBRANCH  38  39
ENDBRANCH  37  38
ENDBRANCH  34  37
ENDBRANCH   8  33
ENDBRANCH   5   8
ENDBRANCH   3   4
ENDBRANCH   2   3
ENDBRANCH   1   2
BRANCH   1  54
ATOM     54  C   UNL     1      24.622  -0.727  16.857  1.00  0.00     0.000 C 
BRANCH  54  55
ATOM     55  C   UNL     1      25.049   0.563  17.468  1.00  0.00     0.000 C 
BRANCH  55  56
ATOM     56  C   UNL     1      25.748   1.464  16.496  1.00  0.00     0.000 C 
BRANCH  56  57
ATOM     57  C   UNL     1      25.610   2.892  16.980  1.00  0.00     0.000 C 
BRANCH  57  58
ATOM     58  C   UNL     1      25.158   2.857  18.426  1.00  0.00     0.000 C 
BRANCH  58  59
ATOM     59  C   UNL     1      25.073   4.274  18.999  1.00  0.00     0.000 C 
BRANCH  59  60
ATOM     60  C   UNL     1      25.713   5.268  18.140  1.00  0.00     0.001 C 
BRANCH  60  61
ATOM     61  C   UNL     1      26.168   6.550  18.176  1.00  0.00     0.009 C 
BRANCH  61  62
ATOM     62  C   UNL     1      26.764   7.774  17.569  1.00  0.00    -0.012 C 
BRANCH  62  63
ATOM     63  C   UNL     1      28.278   7.586  17.738  1.00  0.00    -0.018 C 
ATOM     64  C   UNL     1      28.759   6.251  17.195  1.00  0.00     0.033 C 
ATOM     65  C   UNL     1      29.081   8.568  16.937  1.00  0.00     0.033 C 
ATOM     66  C   UNL     1      28.851   7.516  19.064  1.00  0.00     0.033 C 
ATOM     67  C   UNL     1      30.254   6.106  17.128  1.00  0.00     0.101 C 
ATOM     68  C   UNL     1      30.592   8.427  17.067  1.00  0.00     0.101 C 
ATOM     69  C   UNL     1      30.394   7.376  19.077  1.00  0.00     0.101 C 
ATOM     70  C   UNL     1      30.973   7.142  16.371  1.00  0.00     0.051 C 
ATOM     71  C   UNL     1      30.839   6.051  18.523  1.00  0.00     0.051 C 
ATOM     72  C   UNL     1      31.093   8.521  18.456  1.00  0.00     0.051 C 
BRANCH  67  73
ATOM     73  S   UNL     1      30.647   4.512  16.407  1.00  0.00     0.270 S 
ATOM     74  O   UNL     1      31.127   3.562  17.439  1.00  0.00    -0.199 OA
ATOM     75  O   UNL     1      29.327   3.970  15.885  1.00  0.00    -0.199 OA
BRANCH  73  76
ATOM     76  O   UNL     1      31.655   4.660  15.090  1.00  0.00    -0.285 OA
ATOM     77  H   UNL     1      31.272   5.399  14.526  1.00  0.00     0.234 HD
ENDBRANCH  73  76
ENDBRANCH  67  73
BRANCH  68  78
ATOM     78  S   UNL     1      31.346   9.741  16.119  1.00  0.00     0.270 S 
ATOM     79  O   UNL     1      32.469   9.219  15.302  1.00  0.00    -0.199 OA
ATOM     80  O   UNL     1      31.857  10.745  17.134  1.00  0.00    -0.199 OA
BRANCH  78  81
ATOM     81  O   UNL     1      30.188  10.526  15.170  1.00  0.00    -0.285 OA
ATOM     82  H   UNL     1      30.640  11.169  14.559  1.00  0.00     0.234 HD
ENDBRANCH  78  81
ENDBRANCH  68  78
BRANCH  69  83
ATOM     83  S   UNL     1      30.917   7.328  20.789  1.00  0.00     0.270 S 
ATOM     84  O   UNL     1      30.800   5.971  21.359  1.00  0.00    -0.199 OA
ATOM     85  O   UNL     1      29.977   8.217  21.594  1.00  0.00    -0.199 OA
BRANCH  83  86
ATOM     86  O   UNL     1      32.468   7.886  20.971  1.00  0.00    -0.285 OA
ATOM     87  H   UNL     1      33.089   7.125  21.003  1.00  0.00     0.234 HD
ENDBRANCH  83  86
ENDBRANCH  69  83
ENDBRANCH  62  63
BRANCH  62  88
ATOM     88  C   UNL     1      26.316   7.895  16.126  1.00  0.00    -0.018 C 
ATOM     89  C   UNL     1      26.434   6.631  15.314  1.00  0.00     0.033 C 
ATOM     90  C   UNL     1      26.734   9.019  15.304  1.00  0.00     0.033 C 
ATOM     91  C   UNL     1      24.783   7.893  16.044  1.00  0.00     0.033 C 
ATOM     92  C   UNL     1      25.776   6.730  13.928  1.00  0.00     0.101 C 
ATOM     93  C   UNL     1      26.253   8.989  13.840  1.00  0.00     0.101 C 
ATOM     94  C   UNL     1      24.215   8.220  14.728  1.00  0.00     0.101 C 
ATOM     95  C   UNL     1      26.552   7.747  13.117  1.00  0.00     0.051 C 
ATOM     96  C   UNL     1      24.339   6.943  13.872  1.00  0.00     0.051 C 
ATOM     97  C   UNL     1      24.750   9.293  13.901  1.00  0.00     0.051 C 
BRANCH  92  98
ATOM     98  S   UNL     1      26.073   5.141  13.143  1.00  0.00     0.270 S 
ATOM     99  O   UNL     1      25.935   5.263  11.646  1.00  0.00    -0.199 OA
ATOM    100  O   UNL     1      25.124   4.100  13.610  1.00  0.00    -0.199 OA
BRANCH  98 101
ATOM    101  O   UNL     1      27.635   4.617  13.482  1.00  0.00    -0.285 OA
ATOM    102  H   UNL     1      27.702   3.628  13.475  1.00  0.00     0.234 HD
ENDBRANCH  98 101
ENDBRANCH  92  98
BRANCH  93 103
ATOM    103  S   UNL     1      26.993  10.360  12.979  1.00  0.00     0.270 S 
ATOM    104  O   UNL     1      28.457  10.047  12.853  1.00  0.00    -0.199 OA
ATOM    105  O   UNL     1      26.447  10.490  11.587  1.00  0.00    -0.199 OA
BRANCH 103 106
ATOM    106  O   UNL     1      26.834  11.746  13.877  1.00  0.00    -0.285 OA
ATOM    107  H   UNL     1      27.682  12.069  14.246  1.00  0.00     0.234 HD
ENDBRANCH 103 106
ENDBRANCH  93 103
BRANCH  94 108
ATOM    108  S   UNL     1      22.447   8.470  14.891  1.00  0.00     0.270 S 
ATOM    109  O   UNL     1      21.789   7.358  14.091  1.00  0.00    -0.199 OA
ATOM    110  O   UNL     1      21.994   8.320  16.304  1.00  0.00    -0.199 OA
BRANCH 108 111
ATOM    111  O   UNL     1      21.990   9.908  14.190  1.00  0.00    -0.285 OA
ATOM    112  H   UNL     1      22.329   9.937  13.264  1.00  0.00     0.234 HD
ENDBRANCH 108 111
ENDBRANCH  94 108
ENDBRANCH  62  88
BRANCH  62 113
ATOM    113  C   UNL     1      26.310   8.974  18.424  1.00  0.00    -0.018 C 
ATOM    114  C   UNL     1      25.005   9.580  18.063  1.00  0.00     0.033 C 
ATOM    115  C   UNL     1      25.774   8.463  19.784  1.00  0.00     0.033 C 
ATOM    116  C   UNL     1      27.222  10.089  18.620  1.00  0.00     0.033 C 
ATOM    117  C   UNL     1      24.530  10.692  19.025  1.00  0.00     0.101 C 
ATOM    118  C   UNL     1      25.560   9.539  20.778  1.00  0.00     0.101 C 
ATOM    119  C   UNL     1      26.686  11.230  19.522  1.00  0.00     0.101 C 
ATOM    120  C   UNL     1      24.238  10.238  20.381  1.00  0.00     0.051 C 
ATOM    121  C   UNL     1      25.469  11.845  18.965  1.00  0.00     0.051 C 
ATOM    122  C   UNL     1      26.553  10.614  20.890  1.00  0.00     0.051 C 
BRANCH 117 123
ATOM    123  S   UNL     1      22.974  11.285  18.330  1.00  0.00     0.270 S 
ATOM    124  O   UNL     1      23.172  11.741  16.931  1.00  0.00    -0.199 OA
ATOM    125  O   UNL     1      22.518  12.475  19.155  1.00  0.00    -0.199 OA
BRANCH 123 126
ATOM    126  O   UNL     1      21.781  10.124  18.444  1.00  0.00    -0.285 OA
ATOM    127  H   UNL     1      21.937   9.451  19.138  1.00  0.00     0.234 HD
ENDBRANCH 123 126
ENDBRANCH 117 123
BRANCH 118 128
ATOM    128  S   UNL     1      25.236   8.850  22.384  1.00  0.00     0.270 S 
ATOM    129  O   UNL     1      26.328   9.224  23.335  1.00  0.00    -0.199 OA
ATOM    130  O   UNL     1      23.897   9.338  22.917  1.00  0.00    -0.199 OA
BRANCH 128 131
ATOM    131  O   UNL     1      25.154   7.185  22.301  1.00  0.00    -0.285 OA
ATOM    132  H   UNL     1      25.975   6.762  22.001  1.00  0.00     0.234 HD
ENDBRANCH 128 131
ENDBRANCH 118 128
BRANCH 119 133
ATOM    133  S   UNL     1      27.935  12.498  19.582  1.00  0.00     0.270 S 
ATOM    134  O   UNL     1      27.242  13.766  19.988  1.00  0.00    -0.199 OA
ATOM    135  O   UNL     1      29.047  12.134  20.524  1.00  0.00    -0.199 OA
BRANCH 133 136
ATOM    136  O   UNL     1      28.515  12.750  18.013  1.00  0.00    -0.285 OA
ATOM    137  H   UNL     1      29.063  13.573  17.944  1.00  0.00     0.234 HD
ENDBRANCH 133 136
ENDBRANCH 119 133
ENDBRANCH  62 113
ENDBRANCH  61  62
ENDBRANCH  60  61
ENDBRANCH  59  60
ENDBRANCH  58  59
ENDBRANCH  57  58
ENDBRANCH  56  57
ENDBRANCH  55  56
ENDBRANCH  54  55
ENDBRANCH   1  54
TORSDOF 45
ENDMDL
MODEL 7
REMARK VINA RESULT:   -10.444      2.386      9.057
REMARK INTER + INTRA:         -45.851
REMARK INTER:                 -35.916
REMARK INTRA:                  -9.935
REMARK UNBOUND:               -10.681
REMARK SMILES Cc1cc(OCC(=O)N[C@H](CNC(=O)c2cccc(COc3ccccc3C(N)=O)c2)C(=O)NCCCCCCCCCCCC([C@]23C[C@]4(S(=O)(=O)O)C[C@](S(=O)(=O)O)(C2)C[C@](S(=O)(=O)O)(C3)C4)([C@]23C[C@]4(S(=O)(=O)O)C[C@](S(=O)(=O)O)(C2)C[C@](S(=O)(=O)O)(C3)C4)[C@]23C[C@]4(S(=O)(=O)O)C[C@](S(=O)(=O)O)(C2)C[C@](S(=O)(=O)O)(C3)C4)c2c3c(c(=O)oc2c1)CCC3
REMARK SMILES IDX 37 1 36 2 35 3 34 4 32 5 33 6 10 8 11 9 12 10 14 11 13 12
REMARK SMILES IDX 15 14 16 15 31 16 17 17 19 18 18 19 20 20 21 21 22 22 27 23
REMARK SMILES IDX 23 24 26 25 24 26 25 27 28 28 29 29 30 30 9 33 7 34 8 36
REMARK SMILES IDX 6 37 5 38 4 39 3 40 113 41 2 42 119 43 114 44 1 45 120 46
REMARK SMILES IDX 118 47 115 48 123 49 116 50 121 51 122 52 117 53 38 54 39 55
REMARK SMILES IDX 40 56 41 57 42 58 43 59 44 60 45 61 46 62 69 63 82 64 89 65
REMARK SMILES IDX 70 66 77 67 84 68 71 69 83 70 76 71 90 72 78 73 79 74 80 75
REMARK SMILES IDX 81 76 85 78 86 79 87 80 88 81 72 83 73 84 74 85 75 86 47 88
REMARK SMILES IDX 48 89 60 90 67 91 49 92 55 93 62 94 54 95 68 96 61 97 50 98
REMARK SMILES IDX 51 99 52 100 53 101 56 103 57 104 58 105 59 106 63 108
REMARK SMILES IDX 64 109 65 110 66 111 91 113 104 114 111 115 92 116 99 117
REMARK SMILES IDX 106 118 93 119 105 120 98 121 112 122 100 123 101 124
REMARK SMILES IDX 102 125 103 126 107 128 108 129 109 130 110 131 94 133
REMARK SMILES IDX 95 134 96 135 97 136
REMARK H PARENT 34 7 12 13 29 31 29 32 9 35 81 77 88 82 75 87 53 102 59 107
REMARK H PARENT 66 112 103 127 110 132 97 137
REMARK Flexibility Score: inf
ROOT
ATOM      1  C   UNL     1      23.028  -1.143  17.351  1.00  0.00     0.002 C 
ENDROOT
BRANCH   1   2
ATOM      2  C   UNL     1      22.218  -1.847  16.344  1.00  0.00     0.021 C 
BRANCH   2   3
ATOM      3  C   UNL     1      21.065  -2.685  16.696  1.00  0.00     0.116 C 
BRANCH   3   4
ATOM      4  N   UNL     1      19.767  -2.310  16.250  1.00  0.00    -0.354 N 
ATOM      5  C   UNL     1      18.855  -3.067  15.518  1.00  0.00     0.244 C 
ATOM      6  O   UNL     1      19.110  -4.218  15.121  1.00  0.00    -0.273 OA
ATOM      7  H   UNL     1      19.427  -1.316  16.502  1.00  0.00     0.163 HD
BRANCH   5   8
ATOM      8  C   UNL     1      17.488  -2.560  15.146  1.00  0.00     0.190 C 
BRANCH   8   9
ATOM      9  C   UNL     1      16.391  -3.505  15.339  1.00  0.00     0.151 C 
BRANCH   9  10
ATOM     10  N   UNL     1      16.395  -4.732  14.616  1.00  0.00    -0.349 N 
ATOM     11  O   UNL     1      15.715  -3.973  12.534  1.00  0.00    -0.269 OA
ATOM     12  C   UNL     1      16.071  -4.944  13.274  1.00  0.00     0.251 C 
ATOM     13  H   UNL     1      16.679  -5.628  15.169  1.00  0.00     0.163 HD
BRANCH  12  14
ATOM     14  C   UNL     1      16.116  -6.238  12.643  1.00  0.00     0.040 A 
ATOM     15  C   UNL     1      16.505  -7.361  13.356  1.00  0.00     0.014 A 
ATOM     16  C   UNL     1      15.743  -6.430  11.341  1.00  0.00     0.021 A 
ATOM     17  C   UNL     1      16.504  -8.593  12.757  1.00  0.00     0.001 A 
ATOM     18  C   UNL     1      15.734  -7.677  10.712  1.00  0.00    -0.010 A 
ATOM     19  C   UNL     1      16.125  -8.776  11.445  1.00  0.00     0.007 A 
BRANCH  18  20
ATOM     20  C   UNL     1      15.332  -7.866   9.309  1.00  0.00     0.265 C 
BRANCH  20  21
ATOM     21  O   UNL     1      15.043  -9.178   8.964  1.00  0.00    -0.488 OA
BRANCH  21  22
ATOM     22  C   UNL     1      15.730  -9.905   8.037  1.00  0.00     0.132 A 
ATOM     23  C   UNL     1      15.006 -10.912   7.379  1.00  0.00     0.081 A 
ATOM     24  C   UNL     1      17.051  -9.705   7.731  1.00  0.00     0.047 A 
ATOM     25  C   UNL     1      15.656 -11.676   6.434  1.00  0.00     0.018 A 
ATOM     26  C   UNL     1      17.653 -10.505   6.771  1.00  0.00     0.004 A 
ATOM     27  C   UNL     1      16.971 -11.482   6.125  1.00  0.00     0.001 A 
BRANCH  23  28
ATOM     28  C   UNL     1      13.614 -11.119   7.706  1.00  0.00     0.252 C 
ATOM     29  N   UNL     1      13.274 -11.580   9.005  1.00  0.00    -0.365 N 
ATOM     30  O   UNL     1      12.729 -10.892   6.856  1.00  0.00    -0.269 OA
ATOM     31  H   UNL     1      13.026 -12.569   9.203  1.00  0.00     0.159 HD
ATOM     32  H   UNL     1      13.285 -10.866   9.788  1.00  0.00     0.159 HD
ENDBRANCH  23  28
ENDBRANCH  21  22
ENDBRANCH  20  21
ENDBRANCH  18  20
ENDBRANCH  12  14
ENDBRANCH   9  10
ENDBRANCH   8   9
BRANCH   8  33
ATOM     33  N   UNL     1      17.275  -1.268  15.707  1.00  0.00    -0.340 N 
ATOM     34  C   UNL     1      17.234  -0.107  14.905  1.00  0.00     0.258 C 
ATOM     35  H   UNL     1      17.177  -1.167  16.762  1.00  0.00     0.164 HD
ATOM     36  O   UNL     1      17.394  -0.210  13.646  1.00  0.00    -0.271 OA
BRANCH  34  37
ATOM     37  C   UNL     1      17.004   1.241  15.497  1.00  0.00     0.329 C 
BRANCH  37  38
ATOM     38  O   UNL     1      17.764   1.430  16.651  1.00  0.00    -0.483 OA
BRANCH  38  39
ATOM     39  C   UNL     1      19.137   1.560  16.567  1.00  0.00     0.131 A 
ATOM     40  C   UNL     1      19.849   1.389  15.396  1.00  0.00     0.050 A 
ATOM     41  C   UNL     1      19.782   1.884  17.766  1.00  0.00     0.063 A 
ATOM     42  C   UNL     1      21.222   1.535  15.397  1.00  0.00    -0.044 A 
ATOM     43  C   UNL     1      21.144   2.026  17.752  1.00  0.00     0.142 A 
ATOM     44  C   UNL     1      19.031   2.051  18.928  1.00  0.00    -0.023 A 
ATOM     45  C   UNL     1      21.999   1.347  14.123  1.00  0.00     0.044 C 
ATOM     46  C   UNL     1      21.853   1.852  16.577  1.00  0.00     0.051 A 
ATOM     47  O   UNL     1      21.773   2.334  18.883  1.00  0.00    -0.422 OA
ATOM     48  C   UNL     1      19.736   2.370  20.074  1.00  0.00     0.042 A 
ATOM     49  C   UNL     1      17.595   1.967  19.234  1.00  0.00     0.037 C 
ATOM     50  C   UNL     1      21.101   2.498  19.989  1.00  0.00     0.339 A 
ATOM     51  C   UNL     1      18.809   2.523  21.236  1.00  0.00     0.044 C 
ATOM     52  C   UNL     1      17.489   2.764  20.542  1.00  0.00     0.010 C 
ATOM     53  O   UNL     1      21.731   2.790  21.043  1.00  0.00    -0.246 OA
ENDBRANCH  38  39
ENDBRANCH  37  38
ENDBRANCH  34  37
ENDBRANCH   8  33
ENDBRANCH   5   8
ENDBRANCH   3   4
ENDBRANCH   2   3
ENDBRANCH   1   2
BRANCH   1  54
ATOM     54  C   UNL     1      24.429  -0.731  16.891  1.00  0.00     0.000 C 
BRANCH  54  55
ATOM     55  C   UNL     1      24.876   0.484  17.630  1.00  0.00     0.000 C 
BRANCH  55  56
ATOM     56  C   UNL     1      25.627   1.447  16.762  1.00  0.00     0.000 C 
BRANCH  56  57
ATOM     57  C   UNL     1      25.273   2.855  17.190  1.00  0.00     0.000 C 
BRANCH  57  58
ATOM     58  C   UNL     1      24.985   2.836  18.678  1.00  0.00     0.000 C 
BRANCH  58  59
ATOM     59  C   UNL     1      24.920   4.262  19.232  1.00  0.00     0.000 C 
BRANCH  59  60
ATOM     60  C   UNL     1      25.333   5.266  18.254  1.00  0.00     0.001 C 
BRANCH  60  61
ATOM     61  C   UNL     1      26.176   6.327  18.131  1.00  0.00     0.009 C 
BRANCH  61  62
ATOM     62  C   UNL     1      26.614   7.624  17.540  1.00  0.00    -0.012 C 
BRANCH  62  63
ATOM     63  C   UNL     1      25.899   8.690  18.382  1.00  0.00    -0.018 C 
ATOM     64  C   UNL     1      26.078   8.464  19.873  1.00  0.00     0.033 C 
ATOM     65  C   UNL     1      26.470  10.063  18.192  1.00  0.00     0.033 C 
ATOM     66  C   UNL     1      24.457   8.794  18.337  1.00  0.00     0.033 C 
ATOM     67  C   UNL     1      25.594   9.593  20.739  1.00  0.00     0.101 C 
ATOM     68  C   UNL     1      25.797  11.162  19.006  1.00  0.00     0.101 C 
ATOM     69  C   UNL     1      23.881   9.946  19.198  1.00  0.00     0.101 C 
ATOM     70  C   UNL     1      26.160  10.920  20.452  1.00  0.00     0.051 C 
ATOM     71  C   UNL     1      24.086   9.700  20.667  1.00  0.00     0.051 C 
ATOM     72  C   UNL     1      24.341  11.285  18.771  1.00  0.00     0.051 C 
BRANCH  67  73
ATOM     73  S   UNL     1      25.940   9.197  22.453  1.00  0.00     0.270 S 
ATOM     74  O   UNL     1      27.351   9.491  22.796  1.00  0.00    -0.199 OA
ATOM     75  O   UNL     1      25.078  10.147  23.268  1.00  0.00    -0.199 OA
BRANCH  73  76
ATOM     76  O   UNL     1      25.447   7.655  22.843  1.00  0.00    -0.285 OA
ATOM     77  H   UNL     1      26.263   7.073  22.770  1.00  0.00     0.234 HD
ENDBRANCH  73  76
ENDBRANCH  67  73
BRANCH  68  78
ATOM     78  S   UNL     1      26.561  12.715  18.561  1.00  0.00     0.270 S 
ATOM     79  O   UNL     1      26.889  13.503  19.774  1.00  0.00    -0.199 OA
ATOM     80  O   UNL     1      25.539  13.453  17.716  1.00  0.00    -0.199 OA
BRANCH  78  81
ATOM     81  O   UNL     1      27.921  12.451  17.593  1.00  0.00    -0.285 OA
ATOM     82  H   UNL     1      28.407  11.645  17.917  1.00  0.00     0.234 HD
ENDBRANCH  78  81
ENDBRANCH  68  78
BRANCH  69  83
ATOM     83  S   UNL     1      22.102   9.932  18.999  1.00  0.00     0.270 S 
ATOM     84  O   UNL     1      21.632   8.684  18.365  1.00  0.00    -0.199 OA
ATOM     85  O   UNL     1      21.725  11.065  18.052  1.00  0.00    -0.199 OA
BRANCH  83  86
ATOM     86  O   UNL     1      21.322  10.161  20.444  1.00  0.00    -0.285 OA
ATOM     87  H   UNL     1      21.893   9.843  21.179  1.00  0.00     0.234 HD
ENDBRANCH  83  86
ENDBRANCH  69  83
ENDBRANCH  62  63
BRANCH  62  88
ATOM     88  C   UNL     1      28.126   7.717  17.584  1.00  0.00    -0.018 C 
ATOM     89  C   UNL     1      28.728   7.646  18.964  1.00  0.00     0.033 C 
ATOM     90  C   UNL     1      28.837   8.726  16.816  1.00  0.00     0.033 C 
ATOM     91  C   UNL     1      28.753   6.382  17.160  1.00  0.00     0.033 C 
ATOM     92  C   UNL     1      30.261   7.528  18.958  1.00  0.00     0.101 C 
ATOM     93  C   UNL     1      30.368   8.745  16.997  1.00  0.00     0.101 C 
ATOM     94  C   UNL     1      30.209   6.399  16.952  1.00  0.00     0.101 C 
ATOM     95  C   UNL     1      30.824   8.814  18.390  1.00  0.00     0.051 C 
ATOM     96  C   UNL     1      30.849   6.342  18.354  1.00  0.00     0.051 C 
ATOM     97  C   UNL     1      30.877   7.496  16.266  1.00  0.00     0.051 C 
BRANCH  92  98
ATOM     98  S   UNL     1      30.747   7.496  20.687  1.00  0.00     0.270 S 
ATOM     99  O   UNL     1      32.144   8.037  20.849  1.00  0.00    -0.199 OA
ATOM    100  O   UNL     1      30.715   6.124  21.253  1.00  0.00    -0.199 OA
BRANCH  98 101
ATOM    101  O   UNL     1      29.706   8.459  21.592  1.00  0.00    -0.285 OA
ATOM    102  H   UNL     1      30.101   8.711  22.465  1.00  0.00     0.234 HD
ENDBRANCH  98 101
ENDBRANCH  92  98
BRANCH  93 103
ATOM    103  S   UNL     1      31.021  10.137  16.098  1.00  0.00     0.270 S 
ATOM    104  O   UNL     1      29.861  11.048  15.815  1.00  0.00    -0.199 OA
ATOM    105  O   UNL     1      32.000  10.913  16.929  1.00  0.00    -0.199 OA
BRANCH 103 106
ATOM    106  O   UNL     1      31.649   9.630  14.648  1.00  0.00    -0.285 OA
ATOM    107  H   UNL     1      31.970  10.366  14.087  1.00  0.00     0.234 HD
ENDBRANCH 103 106
ENDBRANCH  93 103
BRANCH  94 108
ATOM    108  S   UNL     1      30.715   4.864  16.175  1.00  0.00     0.270 S 
ATOM    109  O   UNL     1      31.744   5.244  15.124  1.00  0.00    -0.199 OA
ATOM    110  O   UNL     1      31.392   3.952  17.141  1.00  0.00    -0.199 OA
BRANCH 108 111
ATOM    111  O   UNL     1      29.438   4.163  15.373  1.00  0.00    -0.285 OA
ATOM    112  H   UNL     1      29.509   3.182  15.448  1.00  0.00     0.234 HD
ENDBRANCH 108 111
ENDBRANCH  94 108
ENDBRANCH  62  88
BRANCH  62 113
ATOM    113  C   UNL     1      26.068   7.676  16.098  1.00  0.00    -0.018 C 
ATOM    114  C   UNL     1      24.698   8.220  15.936  1.00  0.00     0.033 C 
ATOM    115  C   UNL     1      26.705   8.871  15.350  1.00  0.00     0.033 C 
ATOM    116  C   UNL     1      26.116   6.475  15.280  1.00  0.00     0.033 C 
ATOM    117  C   UNL     1      24.243   8.373  14.467  1.00  0.00     0.101 C 
ATOM    118  C   UNL     1      26.456   8.858  13.890  1.00  0.00     0.101 C 
ATOM    119  C   UNL     1      25.576   6.638  13.837  1.00  0.00     0.101 C 
ATOM    120  C   UNL     1      25.004   9.352  13.695  1.00  0.00     0.051 C 
ATOM    121  C   UNL     1      24.156   7.035  13.823  1.00  0.00     0.051 C 
ATOM    122  C   UNL     1      26.537   7.583  13.166  1.00  0.00     0.051 C 
BRANCH 117 123
ATOM    123  S   UNL     1      22.549   8.988  14.558  1.00  0.00     0.270 S 
ATOM    124  O   UNL     1      21.903   8.926  13.223  1.00  0.00    -0.199 OA
ATOM    125  O   UNL     1      22.603  10.442  14.990  1.00  0.00    -0.199 OA
BRANCH 123 126
ATOM    126  O   UNL     1      21.670   8.165  15.714  1.00  0.00    -0.285 OA
ATOM    127  H   UNL     1      20.715   8.083  15.514  1.00  0.00     0.234 HD
ENDBRANCH 123 126
ENDBRANCH 117 123
BRANCH 118 128
ATOM    128  S   UNL     1      27.457  10.079  13.075  1.00  0.00     0.270 S 
ATOM    129  O   UNL     1      27.042  10.212  11.644  1.00  0.00    -0.199 OA
ATOM    130  O   UNL     1      27.338  11.425  13.774  1.00  0.00    -0.199 OA
BRANCH 128 131
ATOM    131  O   UNL     1      29.067   9.642  13.119  1.00  0.00    -0.285 OA
ATOM    132  H   UNL     1      29.247   8.754  12.770  1.00  0.00     0.234 HD
ENDBRANCH 128 131
ENDBRANCH 118 128
BRANCH 119 133
ATOM    133  S   UNL     1      25.684   5.048  13.041  1.00  0.00     0.270 S 
ATOM    134  O   UNL     1      25.202   5.238  11.632  1.00  0.00    -0.199 OA
ATOM    135  O   UNL     1      27.081   4.499  13.093  1.00  0.00    -0.199 OA
BRANCH 133 136
ATOM    136  O   UNL     1      24.584   4.003  13.788  1.00  0.00    -0.285 OA
ATOM    137  H   UNL     1      24.192   3.353  13.149  1.00  0.00     0.234 HD
ENDBRANCH 133 136
ENDBRANCH 119 133
ENDBRANCH  62 113
ENDBRANCH  61  62
ENDBRANCH  60  61
ENDBRANCH  59  60
ENDBRANCH  58  59
ENDBRANCH  57  58
ENDBRANCH  56  57
ENDBRANCH  55  56
ENDBRANCH  54  55
ENDBRANCH   1  54
TORSDOF 45
ENDMDL
MODEL 8
REMARK VINA RESULT:   -10.400      2.334      8.889
REMARK INTER + INTRA:         -45.705
REMARK INTER:                 -35.988
REMARK INTRA:                  -9.716
REMARK UNBOUND:               -10.681
REMARK SMILES Cc1cc(OCC(=O)N[C@H](CNC(=O)c2cccc(COc3ccccc3C(N)=O)c2)C(=O)NCCCCCCCCCCCC([C@]23C[C@]4(S(=O)(=O)O)C[C@](S(=O)(=O)O)(C2)C[C@](S(=O)(=O)O)(C3)C4)([C@]23C[C@]4(S(=O)(=O)O)C[C@](S(=O)(=O)O)(C2)C[C@](S(=O)(=O)O)(C3)C4)[C@]23C[C@]4(S(=O)(=O)O)C[C@](S(=O)(=O)O)(C2)C[C@](S(=O)(=O)O)(C3)C4)c2c3c(c(=O)oc2c1)CCC3
REMARK SMILES IDX 37 1 36 2 35 3 34 4 32 5 33 6 10 8 11 9 12 10 14 11 13 12
REMARK SMILES IDX 15 14 16 15 31 16 17 17 19 18 18 19 20 20 21 21 22 22 27 23
REMARK SMILES IDX 23 24 26 25 24 26 25 27 28 28 29 29 30 30 9 33 7 34 8 36
REMARK SMILES IDX 6 37 5 38 4 39 3 40 113 41 2 42 119 43 114 44 1 45 120 46
REMARK SMILES IDX 118 47 115 48 123 49 116 50 121 51 122 52 117 53 38 54 39 55
REMARK SMILES IDX 40 56 41 57 42 58 43 59 44 60 45 61 46 62 69 63 82 64 89 65
REMARK SMILES IDX 70 66 77 67 84 68 71 69 83 70 76 71 90 72 78 73 79 74 80 75
REMARK SMILES IDX 81 76 85 78 86 79 87 80 88 81 72 83 73 84 74 85 75 86 47 88
REMARK SMILES IDX 48 89 60 90 67 91 49 92 55 93 62 94 54 95 68 96 61 97 50 98
REMARK SMILES IDX 51 99 52 100 53 101 56 103 57 104 58 105 59 106 63 108
REMARK SMILES IDX 64 109 65 110 66 111 91 113 104 114 111 115 92 116 99 117
REMARK SMILES IDX 106 118 93 119 105 120 98 121 112 122 100 123 101 124
REMARK SMILES IDX 102 125 103 126 107 128 108 129 109 130 110 131 94 133
REMARK SMILES IDX 95 134 96 135 97 136
REMARK H PARENT 34 7 12 13 29 31 29 32 9 35 81 77 88 82 75 87 53 102 59 107
REMARK H PARENT 66 112 103 127 110 132 97 137
REMARK Flexibility Score: inf
ROOT
ATOM      1  C   UNL     1      22.989  -1.188  17.323  1.00  0.00     0.002 C 
ENDROOT
BRANCH   1   2
ATOM      2  C   UNL     1      22.184  -1.914  16.328  1.00  0.00     0.021 C 
BRANCH   2   3
ATOM      3  C   UNL     1      21.032  -2.748  16.693  1.00  0.00     0.116 C 
BRANCH   3   4
ATOM      4  N   UNL     1      19.730  -2.366  16.267  1.00  0.00    -0.354 N 
ATOM      5  C   UNL     1      18.827  -3.093  15.493  1.00  0.00     0.244 C 
ATOM      6  O   UNL     1      19.098  -4.216  15.032  1.00  0.00    -0.273 OA
ATOM      7  H   UNL     1      19.376  -1.392  16.574  1.00  0.00     0.163 HD
BRANCH   5   8
ATOM      8  C   UNL     1      17.454  -2.583  15.148  1.00  0.00     0.190 C 
BRANCH   8   9
ATOM      9  C   UNL     1      16.363  -3.535  15.340  1.00  0.00     0.151 C 
BRANCH   9  10
ATOM     10  N   UNL     1      16.369  -4.757  14.609  1.00  0.00    -0.349 N 
ATOM     11  O   UNL     1      15.707  -3.980  12.527  1.00  0.00    -0.269 OA
ATOM     12  C   UNL     1      16.055  -4.958  13.262  1.00  0.00     0.251 C 
ATOM     13  H   UNL     1      16.647  -5.657  15.157  1.00  0.00     0.163 HD
BRANCH  12  14
ATOM     14  C   UNL     1      16.101  -6.247  12.622  1.00  0.00     0.040 A 
ATOM     15  C   UNL     1      16.436  -7.384  13.341  1.00  0.00     0.014 A 
ATOM     16  C   UNL     1      15.782  -6.421  11.303  1.00  0.00     0.021 A 
ATOM     17  C   UNL     1      16.436  -8.611  12.731  1.00  0.00     0.001 A 
ATOM     18  C   UNL     1      15.775  -7.663  10.663  1.00  0.00    -0.010 A 
ATOM     19  C   UNL     1      16.112  -8.775  11.402  1.00  0.00     0.007 A 
BRANCH  18  20
ATOM     20  C   UNL     1      15.432  -7.831   9.242  1.00  0.00     0.265 C 
BRANCH  20  21
ATOM     21  O   UNL     1      14.965  -9.094   8.908  1.00  0.00    -0.488 OA
BRANCH  21  22
ATOM     22  C   UNL     1      15.589  -9.947   8.046  1.00  0.00     0.132 A 
ATOM     23  C   UNL     1      14.990 -11.207   7.880  1.00  0.00     0.081 A 
ATOM     24  C   UNL     1      16.735  -9.643   7.359  1.00  0.00     0.047 A 
ATOM     25  C   UNL     1      15.582 -12.106   7.020  1.00  0.00     0.018 A 
ATOM     26  C   UNL     1      17.286 -10.588   6.508  1.00  0.00     0.004 A 
ATOM     27  C   UNL     1      16.723 -11.808   6.333  1.00  0.00     0.001 A 
BRANCH  23  28
ATOM     28  C   UNL     1      13.782 -11.523   8.607  1.00  0.00     0.252 C 
ATOM     29  N   UNL     1      13.809 -11.506  10.026  1.00  0.00    -0.365 N 
ATOM     30  O   UNL     1      12.734 -11.804   7.991  1.00  0.00    -0.269 OA
ATOM     31  H   UNL     1      13.871 -12.371  10.597  1.00  0.00     0.159 HD
ATOM     32  H   UNL     1      13.767 -10.558  10.498  1.00  0.00     0.159 HD
ENDBRANCH  23  28
ENDBRANCH  21  22
ENDBRANCH  20  21
ENDBRANCH  18  20
ENDBRANCH  12  14
ENDBRANCH   9  10
ENDBRANCH   8   9
BRANCH   8  33
ATOM     33  N   UNL     1      17.246  -1.302  15.735  1.00  0.00    -0.340 N 
ATOM     34  C   UNL     1      17.336  -0.115  14.978  1.00  0.00     0.258 C 
ATOM     35  H   UNL     1      17.049  -1.232  16.779  1.00  0.00     0.164 HD
ATOM     36  O   UNL     1      17.614  -0.182  13.737  1.00  0.00    -0.271 OA
BRANCH  34  37
ATOM     37  C   UNL     1      17.109   1.222  15.596  1.00  0.00     0.329 C 
BRANCH  37  38
ATOM     38  O   UNL     1      17.856   1.381  16.762  1.00  0.00    -0.483 OA
BRANCH  38  39
ATOM     39  C   UNL     1      19.226   1.543  16.695  1.00  0.00     0.131 A 
ATOM     40  C   UNL     1      19.958   1.373  15.537  1.00  0.00     0.050 A 
ATOM     41  C   UNL     1      19.847   1.899  17.898  1.00  0.00     0.063 A 
ATOM     42  C   UNL     1      21.327   1.553  15.553  1.00  0.00    -0.044 A 
ATOM     43  C   UNL     1      21.205   2.075  17.901  1.00  0.00     0.142 A 
ATOM     44  C   UNL     1      19.076   2.065  19.047  1.00  0.00    -0.023 A 
ATOM     45  C   UNL     1      22.126   1.366  14.293  1.00  0.00     0.044 C 
ATOM     46  C   UNL     1      21.934   1.902  16.737  1.00  0.00     0.051 A 
ATOM     47  O   UNL     1      21.811   2.414  19.035  1.00  0.00    -0.422 OA
ATOM     48  C   UNL     1      19.758   2.417  20.198  1.00  0.00     0.042 A 
ATOM     49  C   UNL     1      17.639   1.950  19.336  1.00  0.00     0.037 C 
ATOM     50  C   UNL     1      21.120   2.577  20.129  1.00  0.00     0.339 A 
ATOM     51  C   UNL     1      18.811   2.563  21.345  1.00  0.00     0.044 C 
ATOM     52  C   UNL     1      17.495   2.762  20.630  1.00  0.00     0.010 C 
ATOM     53  O   UNL     1      21.728   2.899  21.187  1.00  0.00    -0.246 OA
ENDBRANCH  38  39
ENDBRANCH  37  38
ENDBRANCH  34  37
ENDBRANCH   8  33
ENDBRANCH   5   8
ENDBRANCH   3   4
ENDBRANCH   2   3
ENDBRANCH   1   2
BRANCH   1  54
ATOM     54  C   UNL     1      24.428  -0.882  16.902  1.00  0.00     0.000 C 
BRANCH  54  55
ATOM     55  C   UNL     1      24.898   0.374  17.552  1.00  0.00     0.000 C 
BRANCH  55  56
ATOM     56  C   UNL     1      25.702   1.240  16.631  1.00  0.00     0.000 C 
BRANCH  56  57
ATOM     57  C   UNL     1      25.445   2.689  16.988  1.00  0.00     0.000 C 
BRANCH  57  58
ATOM     58  C   UNL     1      25.197   2.767  18.481  1.00  0.00     0.000 C 
BRANCH  58  59
ATOM     59  C   UNL     1      24.839   4.198  18.893  1.00  0.00     0.000 C 
BRANCH  59  60
ATOM     60  C   UNL     1      25.419   5.202  18.004  1.00  0.00     0.001 C 
BRANCH  60  61
ATOM     61  C   UNL     1      26.184   6.326  18.048  1.00  0.00     0.009 C 
BRANCH  61  62
ATOM     62  C   UNL     1      26.614   7.670  17.566  1.00  0.00    -0.012 C 
BRANCH  62  63
ATOM     63  C   UNL     1      28.143   7.652  17.693  1.00  0.00    -0.018 C 
ATOM     64  C   UNL     1      28.762   6.421  17.052  1.00  0.00     0.033 C 
ATOM     65  C   UNL     1      28.804   8.772  16.947  1.00  0.00     0.033 C 
ATOM     66  C   UNL     1      28.755   7.562  19.000  1.00  0.00     0.033 C 
ATOM     67  C   UNL     1      30.261   6.458  16.947  1.00  0.00     0.101 C 
ATOM     68  C   UNL     1      30.325   8.802  17.038  1.00  0.00     0.101 C 
ATOM     69  C   UNL     1      30.304   7.605  18.975  1.00  0.00     0.101 C 
ATOM     70  C   UNL     1      30.834   7.620  16.249  1.00  0.00     0.051 C 
ATOM     71  C   UNL     1      30.885   6.381  18.323  1.00  0.00     0.051 C 
ATOM     72  C   UNL     1      30.848   8.863  18.421  1.00  0.00     0.051 C 
BRANCH  67  73
ATOM     73  S   UNL     1      30.819   4.973  16.111  1.00  0.00     0.270 S 
ATOM     74  O   UNL     1      31.699   5.302  14.966  1.00  0.00    -0.199 OA
ATOM     75  O   UNL     1      31.672   4.235  17.129  1.00  0.00    -0.199 OA
BRANCH  73  76
ATOM     76  O   UNL     1      29.550   3.963  15.733  1.00  0.00    -0.285 OA
ATOM     77  H   UNL     1      28.807   4.195  16.370  1.00  0.00     0.234 HD
ENDBRANCH  73  76
ENDBRANCH  67  73
BRANCH  68  78
ATOM     78  S   UNL     1      30.894  10.256  16.168  1.00  0.00     0.270 S 
ATOM     79  O   UNL     1      31.635   9.874  14.940  1.00  0.00    -0.199 OA
ATOM     80  O   UNL     1      31.813  10.982  17.131  1.00  0.00    -0.199 OA
BRANCH  78  81
ATOM     81  O   UNL     1      29.600  11.288  15.829  1.00  0.00    -0.285 OA
ATOM     82  H   UNL     1      29.946  12.199  15.626  1.00  0.00     0.234 HD
ENDBRANCH  78  81
ENDBRANCH  68  78
BRANCH  69  83
ATOM     83  S   UNL     1      30.875   7.507  20.670  1.00  0.00     0.270 S 
ATOM     84  O   UNL     1      32.275   7.955  20.802  1.00  0.00    -0.199 OA
ATOM     85  O   UNL     1      30.848   6.044  21.091  1.00  0.00    -0.199 OA
BRANCH  83  86
ATOM     86  O   UNL     1      29.904   8.377  21.694  1.00  0.00    -0.285 OA
ATOM     87  H   UNL     1      30.462   8.935  22.281  1.00  0.00     0.234 HD
ENDBRANCH  83  86
ENDBRANCH  69  83
ENDBRANCH  62  63
BRANCH  62  88
ATOM     88  C   UNL     1      26.116   7.884  16.150  1.00  0.00    -0.018 C 
ATOM     89  C   UNL     1      26.894   8.896  15.349  1.00  0.00     0.033 C 
ATOM     90  C   UNL     1      24.700   8.057  15.872  1.00  0.00     0.033 C 
ATOM     91  C   UNL     1      26.558   6.722  15.250  1.00  0.00     0.033 C 
ATOM     92  C   UNL     1      26.501   8.934  13.863  1.00  0.00     0.101 C 
ATOM     93  C   UNL     1      24.337   8.323  14.398  1.00  0.00     0.101 C 
ATOM     94  C   UNL     1      25.962   6.696  13.906  1.00  0.00     0.101 C 
ATOM     95  C   UNL     1      25.072   9.429  13.772  1.00  0.00     0.051 C 
ATOM     96  C   UNL     1      26.733   7.737  13.069  1.00  0.00     0.051 C 
ATOM     97  C   UNL     1      24.553   6.985  13.680  1.00  0.00     0.051 C 
BRANCH  92  98
ATOM     98  S   UNL     1      27.518  10.220  13.129  1.00  0.00     0.270 S 
ATOM     99  O   UNL     1      27.069  10.503  11.719  1.00  0.00    -0.199 OA
ATOM    100  O   UNL     1      28.954   9.844  13.090  1.00  0.00    -0.199 OA
BRANCH  98 101
ATOM    101  O   UNL     1      27.374  11.641  14.019  1.00  0.00    -0.285 OA
ATOM    102  H   UNL     1      28.131  11.762  14.647  1.00  0.00     0.234 HD
ENDBRANCH  98 101
ENDBRANCH  92  98
BRANCH  93 103
ATOM    103  S   UNL     1      22.591   8.654  14.302  1.00  0.00     0.270 S 
ATOM    104  O   UNL     1      22.316   9.105  12.896  1.00  0.00    -0.199 OA
ATOM    105  O   UNL     1      21.786   7.409  14.532  1.00  0.00    -0.199 OA
BRANCH 103 106
ATOM    106  O   UNL     1      22.191   9.892  15.331  1.00  0.00    -0.285 OA
ATOM    107  H   UNL     1      21.225  10.000  15.452  1.00  0.00     0.234 HD
ENDBRANCH 103 106
ENDBRANCH  93 103
BRANCH  94 108
ATOM    108  S   UNL     1      26.343   5.130  13.119  1.00  0.00     0.270 S 
ATOM    109  O   UNL     1      25.321   4.136  13.643  1.00  0.00    -0.199 OA
ATOM    110  O   UNL     1      26.170   5.198  11.639  1.00  0.00    -0.199 OA
BRANCH 108 111
ATOM    111  O   UNL     1      27.840   4.583  13.594  1.00  0.00    -0.285 OA
ATOM    112  H   UNL     1      27.725   3.861  14.256  1.00  0.00     0.234 HD
ENDBRANCH 108 111
ENDBRANCH  94 108
ENDBRANCH  62  88
BRANCH  62 113
ATOM    113  C   UNL     1      26.042   8.711  18.550  1.00  0.00    -0.018 C 
ATOM    114  C   UNL     1      26.473  10.115  18.342  1.00  0.00     0.033 C 
ATOM    115  C   UNL     1      24.578   9.031  18.164  1.00  0.00     0.033 C 
ATOM    116  C   UNL     1      26.154   8.470  19.979  1.00  0.00     0.033 C 
ATOM    117  C   UNL     1      25.776  11.139  19.266  1.00  0.00     0.101 C 
ATOM    118  C   UNL     1      23.852   9.813  19.191  1.00  0.00     0.101 C 
ATOM    119  C   UNL     1      25.519   9.557  20.883  1.00  0.00     0.101 C 
ATOM    120  C   UNL     1      24.339  11.274  19.046  1.00  0.00     0.051 C 
ATOM    121  C   UNL     1      26.147  10.875  20.683  1.00  0.00     0.051 C 
ATOM    122  C   UNL     1      24.040   9.476  20.608  1.00  0.00     0.051 C 
BRANCH 117 123
ATOM    123  S   UNL     1      26.516  12.731  18.850  1.00  0.00     0.270 S 
ATOM    124  O   UNL     1      27.637  12.547  17.895  1.00  0.00    -0.199 OA
ATOM    125  O   UNL     1      27.076  13.333  20.126  1.00  0.00    -0.199 OA
BRANCH 123 126
ATOM    126  O   UNL     1      25.370  13.796  18.268  1.00  0.00    -0.285 OA
ATOM    127  H   UNL     1      25.439  14.703  18.631  1.00  0.00     0.234 HD
ENDBRANCH 123 126
ENDBRANCH 117 123
BRANCH 118 128
ATOM    128  S   UNL     1      22.117   9.881  18.814  1.00  0.00     0.270 S 
ATOM    129  O   UNL     1      21.809  11.114  18.027  1.00  0.00    -0.199 OA
ATOM    130  O   UNL     1      21.690   8.648  18.030  1.00  0.00    -0.199 OA
BRANCH 128 131
ATOM    131  O   UNL     1      21.213   9.909  20.217  1.00  0.00    -0.285 OA
ATOM    132  H   UNL     1      20.344  10.332  20.120  1.00  0.00     0.234 HD
ENDBRANCH 128 131
ENDBRANCH 118 128
BRANCH 119 133
ATOM    133  S   UNL     1      25.815   9.087  22.576  1.00  0.00     0.270 S 
ATOM    134  O   UNL     1      27.276   9.315  22.836  1.00  0.00    -0.199 OA
ATOM    135  O   UNL     1      24.943   9.860  23.523  1.00  0.00    -0.199 OA
BRANCH 133 136
ATOM    136  O   UNL     1      25.556   7.422  22.720  1.00  0.00    -0.285 OA
ATOM    137  H   UNL     1      25.633   6.954  21.848  1.00  0.00     0.234 HD
ENDBRANCH 133 136
ENDBRANCH 119 133
ENDBRANCH  62 113
ENDBRANCH  61  62
ENDBRANCH  60  61
ENDBRANCH  59  60
ENDBRANCH  58  59
ENDBRANCH  57  58
ENDBRANCH  56  57
ENDBRANCH  55  56
ENDBRANCH  54  55
ENDBRANCH   1  54
TORSDOF 45
ENDMDL
MODEL 9
REMARK VINA RESULT:   -10.394      2.483      7.942
REMARK INTER + INTRA:         -45.684
REMARK INTER:                 -33.813
REMARK INTRA:                 -11.871
REMARK UNBOUND:               -10.681
REMARK SMILES Cc1cc(OCC(=O)N[C@H](CNC(=O)c2cccc(COc3ccccc3C(N)=O)c2)C(=O)NCCCCCCCCCCCC([C@]23C[C@]4(S(=O)(=O)O)C[C@](S(=O)(=O)O)(C2)C[C@](S(=O)(=O)O)(C3)C4)([C@]23C[C@]4(S(=O)(=O)O)C[C@](S(=O)(=O)O)(C2)C[C@](S(=O)(=O)O)(C3)C4)[C@]23C[C@]4(S(=O)(=O)O)C[C@](S(=O)(=O)O)(C2)C[C@](S(=O)(=O)O)(C3)C4)c2c3c(c(=O)oc2c1)CCC3
REMARK SMILES IDX 37 1 36 2 35 3 34 4 32 5 33 6 10 8 11 9 12 10 14 11 13 12
REMARK SMILES IDX 15 14 16 15 31 16 17 17 19 18 18 19 20 20 21 21 22 22 27 23
REMARK SMILES IDX 23 24 26 25 24 26 25 27 28 28 29 29 30 30 9 33 7 34 8 36
REMARK SMILES IDX 6 37 5 38 4 39 3 40 113 41 2 42 119 43 114 44 1 45 120 46
REMARK SMILES IDX 118 47 115 48 123 49 116 50 121 51 122 52 117 53 38 54 39 55
REMARK SMILES IDX 40 56 41 57 42 58 43 59 44 60 45 61 46 62 69 63 82 64 89 65
REMARK SMILES IDX 70 66 77 67 84 68 71 69 83 70 76 71 90 72 78 73 79 74 80 75
REMARK SMILES IDX 81 76 85 78 86 79 87 80 88 81 72 83 73 84 74 85 75 86 47 88
REMARK SMILES IDX 48 89 60 90 67 91 49 92 55 93 62 94 54 95 68 96 61 97 50 98
REMARK SMILES IDX 51 99 52 100 53 101 56 103 57 104 58 105 59 106 63 108
REMARK SMILES IDX 64 109 65 110 66 111 91 113 104 114 111 115 92 116 99 117
REMARK SMILES IDX 106 118 93 119 105 120 98 121 112 122 100 123 101 124
REMARK SMILES IDX 102 125 103 126 107 128 108 129 109 130 110 131 94 133
REMARK SMILES IDX 95 134 96 135 97 136
REMARK H PARENT 34 7 12 13 29 31 29 32 9 35 81 77 88 82 75 87 53 102 59 107
REMARK H PARENT 66 112 103 127 110 132 97 137
REMARK Flexibility Score: inf
ROOT
ATOM      1  C   UNL     1      28.365   5.978  16.834  1.00  0.00     0.002 C 
ENDROOT
BRANCH   1   2
ATOM      2  C   UNL     1      27.782   5.142  15.773  1.00  0.00     0.021 C 
BRANCH   2   3
ATOM      3  C   UNL     1      27.458   3.723  15.964  1.00  0.00     0.116 C 
BRANCH   3   4
ATOM      4  N   UNL     1      26.154   3.255  15.643  1.00  0.00    -0.354 N 
ATOM      5  C   UNL     1      25.800   2.183  14.826  1.00  0.00     0.244 C 
ATOM      6  O   UNL     1      26.644   1.497  14.223  1.00  0.00    -0.273 OA
ATOM      7  H   UNL     1      25.319   3.783  16.079  1.00  0.00     0.163 HD
BRANCH   5   8
ATOM      8  C   UNL     1      24.371   1.766  14.603  1.00  0.00     0.190 C 
BRANCH   8   9
ATOM      9  C   UNL     1      24.173   0.363  14.250  1.00  0.00     0.151 C 
BRANCH   9  10
ATOM     10  N   UNL     1      23.275  -0.429  15.021  1.00  0.00    -0.349 N 
ATOM     11  O   UNL     1      22.339  -1.723  13.341  1.00  0.00    -0.269 OA
ATOM     12  C   UNL     1      22.403  -1.425  14.576  1.00  0.00     0.251 C 
ATOM     13  H   UNL     1      23.252  -0.242  16.095  1.00  0.00     0.163 HD
BRANCH  12  14
ATOM     14  C   UNL     1      21.539  -2.172  15.453  1.00  0.00     0.040 A 
ATOM     15  C   UNL     1      21.459  -1.862  16.801  1.00  0.00     0.014 A 
ATOM     16  C   UNL     1      20.734  -3.182  15.002  1.00  0.00     0.021 A 
ATOM     17  C   UNL     1      20.602  -2.552  17.619  1.00  0.00     0.001 A 
ATOM     18  C   UNL     1      19.854  -3.896  15.818  1.00  0.00    -0.010 A 
ATOM     19  C   UNL     1      19.795  -3.566  17.153  1.00  0.00     0.007 A 
BRANCH  18  20
ATOM     20  C   UNL     1      18.997  -4.983  15.316  1.00  0.00     0.265 C 
BRANCH  20  21
ATOM     21  O   UNL     1      17.651  -4.843  15.622  1.00  0.00    -0.488 OA
BRANCH  21  22
ATOM     22  C   UNL     1      16.772  -4.077  14.915  1.00  0.00     0.132 A 
ATOM     23  C   UNL     1      15.624  -4.732  14.438  1.00  0.00     0.081 A 
ATOM     24  C   UNL     1      16.952  -2.743  14.654  1.00  0.00     0.047 A 
ATOM     25  C   UNL     1      14.705  -4.003  13.717  1.00  0.00     0.018 A 
ATOM     26  C   UNL     1      15.992  -2.061  13.922  1.00  0.00     0.004 A 
ATOM     27  C   UNL     1      14.878  -2.675  13.455  1.00  0.00     0.001 A 
BRANCH  23  28
ATOM     28  C   UNL     1      15.440  -6.139  14.715  1.00  0.00     0.252 C 
ATOM     29  N   UNL     1      16.412  -7.063  14.250  1.00  0.00    -0.365 N 
ATOM     30  O   UNL     1      14.441  -6.527  15.354  1.00  0.00    -0.269 OA
ATOM     31  H   UNL     1      16.271  -7.648  13.404  1.00  0.00     0.159 HD
ATOM     32  H   UNL     1      17.310  -7.139  14.807  1.00  0.00     0.159 HD
ENDBRANCH  23  28
ENDBRANCH  21  22
ENDBRANCH  20  21
ENDBRANCH  18  20
ENDBRANCH  12  14
ENDBRANCH   9  10
ENDBRANCH   8   9
BRANCH   8  33
ATOM     33  N   UNL     1      23.550   2.241  15.667  1.00  0.00    -0.340 N 
ATOM     34  C   UNL     1      23.774   1.859  17.006  1.00  0.00     0.258 C 
ATOM     35  H   UNL     1      22.725   2.877  15.444  1.00  0.00     0.164 HD
ATOM     36  O   UNL     1      24.732   1.065  17.279  1.00  0.00    -0.271 OA
BRANCH  34  37
ATOM     37  C   UNL     1      22.917   2.366  18.114  1.00  0.00     0.329 C 
BRANCH  37  38
ATOM     38  O   UNL     1      21.947   1.433  18.480  1.00  0.00    -0.483 OA
BRANCH  38  39
ATOM     39  C   UNL     1      20.711   1.437  17.864  1.00  0.00     0.131 A 
ATOM     40  C   UNL     1      20.510   1.051  16.554  1.00  0.00     0.050 A 
ATOM     41  C   UNL     1      19.645   1.863  18.664  1.00  0.00     0.063 A 
ATOM     42  C   UNL     1      19.240   1.085  16.011  1.00  0.00    -0.044 A 
ATOM     43  C   UNL     1      18.390   1.892  18.115  1.00  0.00     0.142 A 
ATOM     44  C   UNL     1      19.884   2.243  19.984  1.00  0.00    -0.023 A 
ATOM     45  C   UNL     1      19.020   0.667  14.584  1.00  0.00     0.044 C 
ATOM     46  C   UNL     1      18.195   1.506  16.800  1.00  0.00     0.051 A 
ATOM     47  O   UNL     1      17.366   2.294  18.862  1.00  0.00    -0.422 OA
ATOM     48  C   UNL     1      18.783   2.653  20.714  1.00  0.00     0.042 A 
ATOM     49  C   UNL     1      21.090   2.310  20.822  1.00  0.00     0.037 C 
ATOM     50  C   UNL     1      17.555   2.657  20.100  1.00  0.00     0.339 A 
ATOM     51  C   UNL     1      19.184   3.025  22.105  1.00  0.00     0.044 C 
ATOM     52  C   UNL     1      20.506   2.308  22.242  1.00  0.00     0.010 C 
ATOM     53  O   UNL     1      16.560   3.033  20.780  1.00  0.00    -0.246 OA
ENDBRANCH  38  39
ENDBRANCH  37  38
ENDBRANCH  34  37
ENDBRANCH   8  33
ENDBRANCH   5   8
ENDBRANCH   3   4
ENDBRANCH   2   3
ENDBRANCH   1   2
BRANCH   1  54
ATOM     54  C   UNL     1      29.894   5.990  16.892  1.00  0.00     0.000 C 
BRANCH  54  55
ATOM     55  C   UNL     1      30.461   5.922  15.515  1.00  0.00     0.000 C 
BRANCH  55  56
ATOM     56  C   UNL     1      31.471   6.996  15.249  1.00  0.00     0.000 C 
BRANCH  56  57
ATOM     57  C   UNL     1      30.734   8.277  14.921  1.00  0.00     0.000 C 
BRANCH  57  58
ATOM     58  C   UNL     1      29.848   8.016  13.720  1.00  0.00     0.000 C 
BRANCH  58  59
ATOM     59  C   UNL     1      28.475   8.666  13.910  1.00  0.00     0.000 C 
BRANCH  59  60
ATOM     60  C   UNL     1      28.197   8.996  15.306  1.00  0.00     0.001 C 
BRANCH  60  61
ATOM     61  C   UNL     1      27.152   9.284  16.129  1.00  0.00     0.009 C 
BRANCH  61  62
ATOM     62  C   UNL     1      25.803   9.843  16.431  1.00  0.00    -0.012 C 
BRANCH  62  63
ATOM     63  C   UNL     1      25.451   9.270  17.810  1.00  0.00    -0.018 C 
ATOM     64  C   UNL     1      26.473   9.644  18.869  1.00  0.00     0.033 C 
ATOM     65  C   UNL     1      24.182   9.839  18.371  1.00  0.00     0.033 C 
ATOM     66  C   UNL     1      25.426   7.838  18.009  1.00  0.00     0.033 C 
ATOM     67  C   UNL     1      26.068   9.304  20.276  1.00  0.00     0.101 C 
ATOM     68  C   UNL     1      23.784   9.305  19.741  1.00  0.00     0.101 C 
ATOM     69  C   UNL     1      25.004   7.407  19.437  1.00  0.00     0.101 C 
ATOM     70  C   UNL     1      24.782   9.854  20.733  1.00  0.00     0.051 C 
ATOM     71  C   UNL     1      26.030   7.803  20.464  1.00  0.00     0.051 C 
ATOM     72  C   UNL     1      23.636   7.834  19.799  1.00  0.00     0.051 C 
BRANCH  67  73
ATOM     73  S   UNL     1      27.347   9.869  21.399  1.00  0.00     0.270 S 
ATOM     74  O   UNL     1      26.894   9.795  22.808  1.00  0.00    -0.199 OA
ATOM     75  O   UNL     1      28.485   8.873  21.246  1.00  0.00    -0.199 OA
BRANCH  73  76
ATOM     76  O   UNL     1      27.952  11.354  20.950  1.00  0.00    -0.285 OA
ATOM     77  H   UNL     1      27.909  11.383  19.946  1.00  0.00     0.234 HD
ENDBRANCH  73  76
ENDBRANCH  67  73
BRANCH  68  78
ATOM     78  S   UNL     1      22.210  10.034  20.174  1.00  0.00     0.270 S 
ATOM     79  O   UNL     1      22.061  11.369  19.543  1.00  0.00    -0.199 OA
ATOM     80  O   UNL     1      22.215  10.165  21.685  1.00  0.00    -0.199 OA
BRANCH  78  81
ATOM     81  O   UNL     1      20.943   8.996  19.760  1.00  0.00    -0.285 OA
ATOM     82  H   UNL     1      20.125   9.252  20.267  1.00  0.00     0.234 HD
ENDBRANCH  78  81
ENDBRANCH  68  78
BRANCH  69  83
ATOM     83  S   UNL     1      25.009   5.617  19.485  1.00  0.00     0.270 S 
ATOM     84  O   UNL     1      26.192   5.092  20.196  1.00  0.00    -0.199 OA
ATOM     85  O   UNL     1      25.106   5.108  18.052  1.00  0.00    -0.199 OA
BRANCH  83  86
ATOM     86  O   UNL     1      23.624   5.020  20.173  1.00  0.00    -0.285 OA
ATOM     87  H   UNL     1      22.917   4.964  19.491  1.00  0.00     0.234 HD
ENDBRANCH  83  86
ENDBRANCH  69  83
ENDBRANCH  62  63
BRANCH  62  88
ATOM     88  C   UNL     1      25.861  11.357  16.389  1.00  0.00    -0.018 C 
ATOM     89  C   UNL     1      24.671  12.056  16.995  1.00  0.00     0.033 C 
ATOM     90  C   UNL     1      26.246  12.059  15.176  1.00  0.00     0.033 C 
ATOM     91  C   UNL     1      26.815  11.883  17.470  1.00  0.00     0.033 C 
ATOM     92  C   UNL     1      24.856  13.576  17.129  1.00  0.00     0.101 C 
ATOM     93  C   UNL     1      26.207  13.598  15.254  1.00  0.00     0.101 C 
ATOM     94  C   UNL     1      27.128  13.318  17.401  1.00  0.00     0.101 C 
ATOM     95  C   UNL     1      24.939  14.159  15.734  1.00  0.00     0.051 C 
ATOM     96  C   UNL     1      25.916  14.057  18.003  1.00  0.00     0.051 C 
ATOM     97  C   UNL     1      27.400  13.988  16.136  1.00  0.00     0.051 C 
BRANCH  92  98
ATOM     98  S   UNL     1      23.319  14.187  17.831  1.00  0.00     0.270 S 
ATOM     99  O   UNL     1      22.140  13.550  17.142  1.00  0.00    -0.199 OA
ATOM    100  O   UNL     1      23.190  15.660  17.700  1.00  0.00    -0.199 OA
BRANCH  98 101
ATOM    101  O   UNL     1      23.242  13.798  19.466  1.00  0.00    -0.285 OA
ATOM    102  H   UNL     1      22.379  13.373  19.704  1.00  0.00     0.234 HD
ENDBRANCH  98 101
ENDBRANCH  92  98
BRANCH  93 103
ATOM    103  S   UNL     1      26.562  14.251  13.637  1.00  0.00     0.270 S 
ATOM    104  O   UNL     1      26.262  15.722  13.692  1.00  0.00    -0.199 OA
ATOM    105  O   UNL     1      28.016  14.108  13.296  1.00  0.00    -0.199 OA
BRANCH 103 106
ATOM    106  O   UNL     1      25.555  13.559  12.514  1.00  0.00    -0.285 OA
ATOM    107  H   UNL     1      25.184  14.203  11.876  1.00  0.00     0.234 HD
ENDBRANCH 103 106
ENDBRANCH  93 103
BRANCH  94 108
ATOM    108  S   UNL     1      28.472  13.687  18.528  1.00  0.00     0.270 S 
ATOM    109  O   UNL     1      29.273  12.403  18.662  1.00  0.00    -0.199 OA
ATOM    110  O   UNL     1      29.392  14.721  17.973  1.00  0.00    -0.199 OA
BRANCH 108 111
ATOM    111  O   UNL     1      27.886  14.053  20.041  1.00  0.00    -0.285 OA
ATOM    112  H   UNL     1      27.990  13.266  20.627  1.00  0.00     0.234 HD
ENDBRANCH 108 111
ENDBRANCH  94 108
ENDBRANCH  62  88
BRANCH  62 113
ATOM    113  C   UNL     1      24.828   9.266  15.385  1.00  0.00    -0.018 C 
ATOM    114  C   UNL     1      23.412   9.692  15.505  1.00  0.00     0.033 C 
ATOM    115  C   UNL     1      25.010  10.017  14.044  1.00  0.00     0.033 C 
ATOM    116  C   UNL     1      24.792   7.830  15.166  1.00  0.00     0.033 C 
ATOM    117  C   UNL     1      22.497   9.195  14.363  1.00  0.00     0.101 C 
ATOM    118  C   UNL     1      24.315   9.374  12.905  1.00  0.00     0.101 C 
ATOM    119  C   UNL     1      23.804   7.353  14.071  1.00  0.00     0.101 C 
ATOM    120  C   UNL     1      22.820   9.740  13.048  1.00  0.00     0.051 C 
ATOM    121  C   UNL     1      22.411   7.710  14.395  1.00  0.00     0.051 C 
ATOM    122  C   UNL     1      24.351   7.911  12.784  1.00  0.00     0.051 C 
BRANCH 117 123
ATOM    123  S   UNL     1      20.848   9.795  14.783  1.00  0.00     0.270 S 
ATOM    124  O   UNL     1      20.303  10.625  13.680  1.00  0.00    -0.199 OA
ATOM    125  O   UNL     1      20.970  10.670  16.018  1.00  0.00    -0.199 OA
BRANCH 123 126
ATOM    126  O   UNL     1      19.829   8.533  15.176  1.00  0.00    -0.285 OA
ATOM    127  H   UNL     1      19.863   8.263  16.117  1.00  0.00     0.234 HD
ENDBRANCH 123 126
ENDBRANCH 117 123
BRANCH 118 128
ATOM    128  S   UNL     1      24.813  10.117  11.369  1.00  0.00     0.270 S 
ATOM    129  O   UNL     1      24.145  11.444  11.199  1.00  0.00    -0.199 OA
ATOM    130  O   UNL     1      26.325  10.291  11.322  1.00  0.00    -0.199 OA
BRANCH 128 131
ATOM    131  O   UNL     1      24.390   9.143  10.082  1.00  0.00    -0.285 OA
ATOM    132  H   UNL     1      24.050   8.272  10.339  1.00  0.00     0.234 HD
ENDBRANCH 128 131
ENDBRANCH 118 128
BRANCH 119 133
ATOM    133  S   UNL     1      23.889   5.575  14.009  1.00  0.00     0.270 S 
ATOM    134  O   UNL     1      22.584   5.101  13.437  1.00  0.00    -0.199 OA
ATOM    135  O   UNL     1      25.065   5.107  13.201  1.00  0.00    -0.199 OA
BRANCH 133 136
ATOM    136  O   UNL     1      23.958   4.989  15.594  1.00  0.00    -0.285 OA
ATOM    137  H   UNL     1      23.092   4.610  15.891  1.00  0.00     0.234 HD
ENDBRANCH 133 136
ENDBRANCH 119 133
ENDBRANCH  62 113
ENDBRANCH  61  62
ENDBRANCH  60  61
ENDBRANCH  59  60
ENDBRANCH  58  59
ENDBRANCH  57  58
ENDBRANCH  56  57
ENDBRANCH  55  56
ENDBRANCH  54  55
ENDBRANCH   1  54
TORSDOF 45
ENDMDL
MODEL 10
REMARK VINA RESULT:   -10.356      2.336      7.729
REMARK INTER + INTRA:         -45.556
REMARK INTER:                 -33.201
REMARK INTRA:                 -12.355
REMARK UNBOUND:               -10.681
REMARK SMILES Cc1cc(OCC(=O)N[C@H](CNC(=O)c2cccc(COc3ccccc3C(N)=O)c2)C(=O)NCCCCCCCCCCCC([C@]23C[C@]4(S(=O)(=O)O)C[C@](S(=O)(=O)O)(C2)C[C@](S(=O)(=O)O)(C3)C4)([C@]23C[C@]4(S(=O)(=O)O)C[C@](S(=O)(=O)O)(C2)C[C@](S(=O)(=O)O)(C3)C4)[C@]23C[C@]4(S(=O)(=O)O)C[C@](S(=O)(=O)O)(C2)C[C@](S(=O)(=O)O)(C3)C4)c2c3c(c(=O)oc2c1)CCC3
REMARK SMILES IDX 37 1 36 2 35 3 34 4 32 5 33 6 10 8 11 9 12 10 14 11 13 12
REMARK SMILES IDX 15 14 16 15 31 16 17 17 19 18 18 19 20 20 21 21 22 22 27 23
REMARK SMILES IDX 23 24 26 25 24 26 25 27 28 28 29 29 30 30 9 33 7 34 8 36
REMARK SMILES IDX 6 37 5 38 4 39 3 40 113 41 2 42 119 43 114 44 1 45 120 46
REMARK SMILES IDX 118 47 115 48 123 49 116 50 121 51 122 52 117 53 38 54 39 55
REMARK SMILES IDX 40 56 41 57 42 58 43 59 44 60 45 61 46 62 69 63 82 64 89 65
REMARK SMILES IDX 70 66 77 67 84 68 71 69 83 70 76 71 90 72 78 73 79 74 80 75
REMARK SMILES IDX 81 76 85 78 86 79 87 80 88 81 72 83 73 84 74 85 75 86 47 88
REMARK SMILES IDX 48 89 60 90 67 91 49 92 55 93 62 94 54 95 68 96 61 97 50 98
REMARK SMILES IDX 51 99 52 100 53 101 56 103 57 104 58 105 59 106 63 108
REMARK SMILES IDX 64 109 65 110 66 111 91 113 104 114 111 115 92 116 99 117
REMARK SMILES IDX 106 118 93 119 105 120 98 121 112 122 100 123 101 124
REMARK SMILES IDX 102 125 103 126 107 128 108 129 109 130 110 131 94 133
REMARK SMILES IDX 95 134 96 135 97 136
REMARK H PARENT 34 7 12 13 29 31 29 32 9 35 81 77 88 82 75 87 53 102 59 107
REMARK H PARENT 66 112 103 127 110 132 97 137
REMARK Flexibility Score: inf
ROOT
ATOM      1  C   UNL     1      28.348   6.059  16.794  1.00  0.00     0.002 C 
ENDROOT
BRANCH   1   2
ATOM      2  C   UNL     1      27.812   5.192  15.733  1.00  0.00     0.021 C 
BRANCH   2   3
ATOM      3  C   UNL     1      27.480   3.779  15.952  1.00  0.00     0.116 C 
BRANCH   3   4
ATOM      4  N   UNL     1      26.171   3.313  15.645  1.00  0.00    -0.354 N 
ATOM      5  C   UNL     1      25.805   2.238  14.838  1.00  0.00     0.244 C 
ATOM      6  O   UNL     1      26.641   1.546  14.230  1.00  0.00    -0.273 OA
ATOM      7  H   UNL     1      25.341   3.847  16.086  1.00  0.00     0.163 HD
BRANCH   5   8
ATOM      8  C   UNL     1      24.373   1.825  14.630  1.00  0.00     0.190 C 
BRANCH   8   9
ATOM      9  C   UNL     1      24.165   0.415  14.312  1.00  0.00     0.151 C 
BRANCH   9  10
ATOM     10  N   UNL     1      23.240  -0.344  15.085  1.00  0.00    -0.349 N 
ATOM     11  O   UNL     1      22.365  -1.712  13.430  1.00  0.00    -0.269 OA
ATOM     12  C   UNL     1      22.385  -1.360  14.652  1.00  0.00     0.251 C 
ATOM     13  H   UNL     1      23.177  -0.109  16.148  1.00  0.00     0.163 HD
BRANCH  12  14
ATOM     14  C   UNL     1      21.489  -2.069  15.530  1.00  0.00     0.040 A 
ATOM     15  C   UNL     1      21.438  -1.770  16.882  1.00  0.00     0.014 A 
ATOM     16  C   UNL     1      20.625  -3.028  15.075  1.00  0.00     0.021 A 
ATOM     17  C   UNL     1      20.552  -2.422  17.700  1.00  0.00     0.001 A 
ATOM     18  C   UNL     1      19.715  -3.702  15.892  1.00  0.00    -0.010 A 
ATOM     19  C   UNL     1      19.687  -3.385  17.231  1.00  0.00     0.007 A 
BRANCH  18  20
ATOM     20  C   UNL     1      18.795  -4.734  15.386  1.00  0.00     0.265 C 
BRANCH  20  21
ATOM     21  O   UNL     1      17.655  -4.237  14.772  1.00  0.00    -0.488 OA
BRANCH  21  22
ATOM     22  C   UNL     1      16.953  -4.888  13.799  1.00  0.00     0.132 A 
ATOM     23  C   UNL     1      16.046  -4.108  13.064  1.00  0.00     0.081 A 
ATOM     24  C   UNL     1      17.087  -6.223  13.519  1.00  0.00     0.047 A 
ATOM     25  C   UNL     1      15.311  -4.719  12.071  1.00  0.00     0.018 A 
ATOM     26  C   UNL     1      16.321  -6.783  12.508  1.00  0.00     0.004 A 
ATOM     27  C   UNL     1      15.441  -6.047  11.787  1.00  0.00     0.001 A 
BRANCH  23  28
ATOM     28  C   UNL     1      15.908  -2.701  13.365  1.00  0.00     0.252 C 
ATOM     29  N   UNL     1      17.054  -1.867  13.288  1.00  0.00    -0.365 N 
ATOM     30  O   UNL     1      14.796  -2.234  13.685  1.00  0.00    -0.269 OA
ATOM     31  H   UNL     1      17.581  -1.558  14.128  1.00  0.00     0.159 HD
ATOM     32  H   UNL     1      17.364  -1.562  12.322  1.00  0.00     0.159 HD
ENDBRANCH  23  28
ENDBRANCH  21  22
ENDBRANCH  20  21
ENDBRANCH  18  20
ENDBRANCH  12  14
ENDBRANCH   9  10
ENDBRANCH   8   9
BRANCH   8  33
ATOM     33  N   UNL     1      23.560   2.332  15.685  1.00  0.00    -0.340 N 
ATOM     34  C   UNL     1      23.795   1.991  17.033  1.00  0.00     0.258 C 
ATOM     35  H   UNL     1      22.732   2.958  15.449  1.00  0.00     0.164 HD
ATOM     36  O   UNL     1      24.755   1.208  17.324  1.00  0.00    -0.271 OA
BRANCH  34  37
ATOM     37  C   UNL     1      22.944   2.530  18.132  1.00  0.00     0.329 C 
BRANCH  37  38
ATOM     38  O   UNL     1      21.983   1.605  18.538  1.00  0.00    -0.483 OA
BRANCH  38  39
ATOM     39  C   UNL     1      20.745   1.574  17.927  1.00  0.00     0.131 A 
ATOM     40  C   UNL     1      20.552   1.201  16.612  1.00  0.00     0.050 A 
ATOM     41  C   UNL     1      19.668   1.951  18.738  1.00  0.00     0.063 A 
ATOM     42  C   UNL     1      19.280   1.198  16.075  1.00  0.00    -0.044 A 
ATOM     43  C   UNL     1      18.411   1.943  18.193  1.00  0.00     0.142 A 
ATOM     44  C   UNL     1      19.899   2.319  20.062  1.00  0.00    -0.023 A 
ATOM     45  C   UNL     1      19.069   0.794  14.642  1.00  0.00     0.044 C 
ATOM     46  C   UNL     1      18.224   1.570  16.874  1.00  0.00     0.051 A 
ATOM     47  O   UNL     1      17.376   2.298  18.950  1.00  0.00    -0.422 OA
ATOM     48  C   UNL     1      18.788   2.680  20.802  1.00  0.00     0.042 A 
ATOM     49  C   UNL     1      21.106   2.417  20.897  1.00  0.00     0.037 C 
ATOM     50  C   UNL     1      17.558   2.649  20.193  1.00  0.00     0.339 A 
ATOM     51  C   UNL     1      19.181   3.045  22.197  1.00  0.00     0.044 C 
ATOM     52  C   UNL     1      20.529   2.373  22.318  1.00  0.00     0.010 C 
ATOM     53  O   UNL     1      16.553   2.979  20.882  1.00  0.00    -0.246 OA
ENDBRANCH  38  39
ENDBRANCH  37  38
ENDBRANCH  34  37
ENDBRANCH   8  33
ENDBRANCH   5   8
ENDBRANCH   3   4
ENDBRANCH   2   3
ENDBRANCH   1   2
BRANCH   1  54
ATOM     54  C   UNL     1      29.875   6.154  16.852  1.00  0.00     0.000 C 
BRANCH  54  55
ATOM     55  C   UNL     1      30.454   5.963  15.492  1.00  0.00     0.000 C 
BRANCH  55  56
ATOM     56  C   UNL     1      31.517   6.968  15.167  1.00  0.00     0.000 C 
BRANCH  56  57
ATOM     57  C   UNL     1      30.847   8.233  14.673  1.00  0.00     0.000 C 
BRANCH  57  58
ATOM     58  C   UNL     1      29.889   7.853  13.562  1.00  0.00     0.000 C 
BRANCH  58  59
ATOM     59  C   UNL     1      28.581   8.641  13.685  1.00  0.00     0.000 C 
BRANCH  59  60
ATOM     60  C   UNL     1      28.334   9.112  15.046  1.00  0.00     0.001 C 
BRANCH  60  61
ATOM     61  C   UNL     1      27.303   9.407  15.884  1.00  0.00     0.009 C 
BRANCH  61  62
ATOM     62  C   UNL     1      25.940   9.927  16.194  1.00  0.00    -0.012 C 
BRANCH  62  63
ATOM     63  C   UNL     1      26.068  11.449  16.048  1.00  0.00    -0.018 C 
ATOM     64  C   UNL     1      24.847  12.184  16.575  1.00  0.00     0.033 C 
ATOM     65  C   UNL     1      27.176  12.024  16.879  1.00  0.00     0.033 C 
ATOM     66  C   UNL     1      26.142  12.041  14.730  1.00  0.00     0.033 C 
ATOM     67  C   UNL     1      25.007  13.676  16.665  1.00  0.00     0.101 C 
ATOM     68  C   UNL     1      27.347  13.534  16.772  1.00  0.00     0.101 C 
ATOM     69  C   UNL     1      26.319  13.580  14.740  1.00  0.00     0.101 C 
ATOM     70  C   UNL     1      26.152  14.160  17.452  1.00  0.00     0.051 C 
ATOM     71  C   UNL     1      25.100  14.278  15.280  1.00  0.00     0.051 C 
ATOM     72  C   UNL     1      27.569  14.023  15.393  1.00  0.00     0.051 C 
BRANCH  67  73
ATOM     73  S   UNL     1      23.512  14.376  17.365  1.00  0.00     0.270 S 
ATOM     74  O   UNL     1      23.708  14.742  18.787  1.00  0.00    -0.199 OA
ATOM     75  O   UNL     1      23.278  15.670  16.602  1.00  0.00    -0.199 OA
BRANCH  73  76
ATOM     76  O   UNL     1      22.186  13.411  17.081  1.00  0.00    -0.285 OA
ATOM     77  H   UNL     1      22.224  13.159  16.108  1.00  0.00     0.234 HD
ENDBRANCH  73  76
ENDBRANCH  67  73
BRANCH  68  78
ATOM     78  S   UNL     1      28.768  13.993  17.755  1.00  0.00     0.270 S 
ATOM     79  O   UNL     1      29.342  15.275  17.277  1.00  0.00    -0.199 OA
ATOM     80  O   UNL     1      29.772  12.870  17.582  1.00  0.00    -0.199 OA
BRANCH  78  81
ATOM     81  O   UNL     1      28.358  14.057  19.393  1.00  0.00    -0.285 OA
ATOM     82  H   UNL     1      27.502  14.553  19.502  1.00  0.00     0.234 HD
ENDBRANCH  78  81
ENDBRANCH  68  78
BRANCH  69  83
ATOM     83  S   UNL     1      26.413  14.124  13.037  1.00  0.00     0.270 S 
ATOM     84  O   UNL     1      26.720  15.565  12.939  1.00  0.00    -0.199 OA
ATOM     85  O   UNL     1      25.040  13.932  12.405  1.00  0.00    -0.199 OA
BRANCH  83  86
ATOM     86  O   UNL     1      27.526  13.249  12.175  1.00  0.00    -0.285 OA
ATOM     87  H   UNL     1      28.400  13.297  12.624  1.00  0.00     0.234 HD
ENDBRANCH  83  86
ENDBRANCH  69  83
ENDBRANCH  62  63
BRANCH  62  88
ATOM     88  C   UNL     1      24.931   9.299  15.252  1.00  0.00    -0.018 C 
ATOM     89  C   UNL     1      23.509   9.757  15.447  1.00  0.00     0.033 C 
ATOM     90  C   UNL     1      24.931   7.868  15.000  1.00  0.00     0.033 C 
ATOM     91  C   UNL     1      25.027   9.946  13.863  1.00  0.00     0.033 C 
ATOM     92  C   UNL     1      22.552   9.269  14.346  1.00  0.00     0.101 C 
ATOM     93  C   UNL     1      23.817   7.355  14.066  1.00  0.00     0.101 C 
ATOM     94  C   UNL     1      24.256   9.287  12.799  1.00  0.00     0.101 C 
ATOM     95  C   UNL     1      22.459   7.761  14.447  1.00  0.00     0.051 C 
ATOM     96  C   UNL     1      22.791   9.728  12.987  1.00  0.00     0.051 C 
ATOM     97  C   UNL     1      24.210   7.838  12.664  1.00  0.00     0.051 C 
BRANCH  92  98
ATOM     98  S   UNL     1      20.933   9.897  14.805  1.00  0.00     0.270 S 
ATOM     99  O   UNL     1      20.293  10.599  13.635  1.00  0.00    -0.199 OA
ATOM    100  O   UNL     1      21.004  10.856  15.936  1.00  0.00    -0.199 OA
BRANCH  98 101
ATOM    101  O   UNL     1      19.932   8.624  15.261  1.00  0.00    -0.285 OA
ATOM    102  H   UNL     1      19.751   8.627  16.235  1.00  0.00     0.234 HD
ENDBRANCH  98 101
ENDBRANCH  92  98
BRANCH  93 103
ATOM    103  S   UNL     1      23.904   5.578  14.013  1.00  0.00     0.270 S 
ATOM    104  O   UNL     1      24.029   5.112  15.436  1.00  0.00    -0.199 OA
ATOM    105  O   UNL     1      22.639   4.986  13.463  1.00  0.00    -0.199 OA
BRANCH 103 106
ATOM    106  O   UNL     1      25.263   5.102  13.189  1.00  0.00    -0.285 OA
ATOM    107  H   UNL     1      25.311   5.463  12.280  1.00  0.00     0.234 HD
ENDBRANCH 103 106
ENDBRANCH  93 103
BRANCH  94 108
ATOM    108  S   UNL     1      24.724   9.980  11.212  1.00  0.00     0.270 S 
ATOM    109  O   UNL     1      23.598  10.920  10.816  1.00  0.00    -0.199 OA
ATOM    110  O   UNL     1      25.965  10.801  11.311  1.00  0.00    -0.199 OA
BRANCH 108 111
ATOM    111  O   UNL     1      24.796   8.792  10.051  1.00  0.00    -0.285 OA
ATOM    112  H   UNL     1      25.040   9.200   9.186  1.00  0.00     0.234 HD
ENDBRANCH 108 111
ENDBRANCH  94 108
ENDBRANCH  62  88
BRANCH  62 113
ATOM    113  C   UNL     1      25.649   9.588  17.670  1.00  0.00    -0.018 C 
ATOM    114  C   UNL     1      25.439   8.154  17.984  1.00  0.00     0.033 C 
ATOM    115  C   UNL     1      26.968   9.642  18.479  1.00  0.00     0.033 C 
ATOM    116  C   UNL     1      24.593  10.305  18.366  1.00  0.00     0.033 C 
ATOM    117  C   UNL     1      25.280   7.848  19.491  1.00  0.00     0.101 C 
ATOM    118  C   UNL     1      26.766   9.594  19.945  1.00  0.00     0.101 C 
ATOM    119  C   UNL     1      24.401   9.917  19.854  1.00  0.00     0.101 C 
ATOM    120  C   UNL     1      26.470   8.116  20.293  1.00  0.00     0.051 C 
ATOM    121  C   UNL     1      24.045   8.495  20.010  1.00  0.00     0.051 C 
ATOM    122  C   UNL     1      25.666  10.364  20.538  1.00  0.00     0.051 C 
BRANCH 117 123
ATOM    123  S   UNL     1      24.982   6.070  19.583  1.00  0.00     0.270 S 
ATOM    124  O   UNL     1      23.642   5.799  20.161  1.00  0.00    -0.199 OA
ATOM    125  O   UNL     1      26.026   5.470  20.507  1.00  0.00    -0.199 OA
BRANCH 123 126
ATOM    126  O   UNL     1      25.175   5.348  18.091  1.00  0.00    -0.285 OA
ATOM    127  H   UNL     1      25.803   4.597  18.083  1.00  0.00     0.234 HD
ENDBRANCH 123 126
ENDBRANCH 117 123
BRANCH 118 128
ATOM    128  S   UNL     1      28.283   9.958  20.797  1.00  0.00     0.270 S 
ATOM    129  O   UNL     1      27.998  10.340  22.214  1.00  0.00    -0.199 OA
ATOM    130  O   UNL     1      29.218   8.757  20.764  1.00  0.00    -0.199 OA
BRANCH 128 131
ATOM    131  O   UNL     1      29.081  11.223  20.057  1.00  0.00    -0.285 OA
ATOM    132  H   UNL     1      28.501  11.820  19.558  1.00  0.00     0.234 HD
ENDBRANCH 128 131
ENDBRANCH 118 128
BRANCH 119 133
ATOM    133  S   UNL     1      23.037  10.872  20.485  1.00  0.00     0.270 S 
ATOM    134  O   UNL     1      23.613  11.845  21.472  1.00  0.00    -0.199 OA
ATOM    135  O   UNL     1      22.288  11.561  19.381  1.00  0.00    -0.199 OA
BRANCH 133 136
ATOM    136  O   UNL     1      22.026   9.840  21.364  1.00  0.00    -0.285 OA
ATOM    137  H   UNL     1      21.396  10.338  21.946  1.00  0.00     0.234 HD
ENDBRANCH 133 136
ENDBRANCH 119 133
ENDBRANCH  62 113
ENDBRANCH  61  62
ENDBRANCH  60  61
ENDBRANCH  59  60
ENDBRANCH  58  59
ENDBRANCH  57  58
ENDBRANCH  56  57
ENDBRANCH  55  56
ENDBRANCH  54  55
ENDBRANCH   1  54
TORSDOF 45
ENDMDL
