MODEL 1
REMARK VINA RESULT:    -9.918      0.000      0.000
REMARK INTER + INTRA:         -42.415
REMARK INTER:                 -32.240
REMARK INTRA:                 -10.175
REMARK UNBOUND:               -10.175
REMARK SMILES Cc1cc(C(=O)N[C@H](CNC(=O)c2cccc(COc3ccccc3C(N)=O)c2)C(=O)NCCCCCCCCCCCC([C@]23C[C@]4(S(=O)(=O)O)C[C@](S(=O)(=O)O)(C2)C[C@](S(=O)(=O)O)(C3)C4)([C@]23C[C@]4(S(=O)(=O)O)C[C@](S(=O)(=O)O)(C2)C[C@](S(=O)(=O)O)(C3)C4)[C@]23C[C@]4(S(=O)(=O)O)C[C@](S(=O)(=O)O)(C2)C[C@](S(=O)(=O)O)(C3)C4)[nH]n1
REMARK SMILES IDX 35 1 34 2 33 3 32 4 30 5 31 6 8 8 9 9 10 10 12 11 11 12
REMARK SMILES IDX 13 14 14 15 29 16 15 17 17 18 16 19 18 20 19 21 20 22 25 23
REMARK SMILES IDX 21 24 24 25 22 26 23 27 26 28 27 29 28 30 7 33 5 34 6 36
REMARK SMILES IDX 4 37 3 38 111 39 2 40 112 41 1 43 36 44 37 45 38 46 39 47
REMARK SMILES IDX 40 48 41 49 42 50 43 51 44 52 67 53 80 54 87 55 68 56 75 57
REMARK SMILES IDX 82 58 69 59 81 60 74 61 88 62 76 63 77 64 78 65 79 66 83 68
REMARK SMILES IDX 84 69 85 70 86 71 70 73 71 74 72 75 73 76 45 78 46 79 58 80
REMARK SMILES IDX 65 81 47 82 53 83 60 84 52 85 66 86 59 87 48 88 49 89 50 90
REMARK SMILES IDX 51 91 54 93 55 94 56 95 57 96 61 98 62 99 63 100 64 101
REMARK SMILES IDX 89 103 102 104 109 105 90 106 97 107 104 108 91 109 103 110
REMARK SMILES IDX 96 111 110 112 98 113 99 114 100 115 101 116 105 118 106 119
REMARK SMILES IDX 107 120 108 121 92 123 93 124 94 125 95 126
REMARK H PARENT 32 7 10 13 27 31 27 32 7 35 111 42 79 67 86 72 73 77 51 92
REMARK H PARENT 57 97 64 102 101 117 108 122 95 127
REMARK Flexibility Score: inf
ROOT
ATOM      1  C   UNL     1      20.578   1.524  14.800  1.00  0.00     0.002 C 
ENDROOT
BRANCH   1   2
ATOM      2  C   UNL     1      19.530   1.706  13.773  1.00  0.00     0.021 C 
BRANCH   2   3
ATOM      3  C   UNL     1      18.786   0.494  13.361  1.00  0.00     0.116 C 
BRANCH   3   4
ATOM      4  N   UNL     1      18.943  -0.698  14.077  1.00  0.00    -0.354 N 
ATOM      5  C   UNL     1      18.234  -1.192  15.167  1.00  0.00     0.244 C 
ATOM      6  O   UNL     1      17.303  -0.647  15.799  1.00  0.00    -0.273 OA
ATOM      7  H   UNL     1      19.750  -1.336  13.711  1.00  0.00     0.163 HD
BRANCH   5   8
ATOM      8  C   UNL     1      18.636  -2.590  15.650  1.00  0.00     0.191 C 
BRANCH   8   9
ATOM      9  C   UNL     1      18.914  -2.613  17.102  1.00  0.00     0.151 C 
BRANCH   9  10
ATOM     10  N   UNL     1      19.946  -1.595  17.404  1.00  0.00    -0.349 N 
ATOM     11  O   UNL     1      21.606  -2.936  16.420  1.00  0.00    -0.269 OA
ATOM     12  C   UNL     1      21.264  -1.893  17.008  1.00  0.00     0.251 C 
ATOM     13  H   UNL     1      19.664  -0.741  17.877  1.00  0.00     0.163 HD
BRANCH  12  14
ATOM     14  C   UNL     1      22.295  -0.874  17.330  1.00  0.00     0.040 A 
ATOM     15  C   UNL     1      23.599  -1.119  16.977  1.00  0.00     0.014 A 
ATOM     16  C   UNL     1      21.880   0.271  17.959  1.00  0.00     0.021 A 
ATOM     17  C   UNL     1      24.560  -0.153  17.273  1.00  0.00     0.001 A 
ATOM     18  C   UNL     1      22.822   1.215  18.247  1.00  0.00    -0.010 A 
ATOM     19  C   UNL     1      24.144   0.995  17.903  1.00  0.00     0.007 A 
BRANCH  18  20
ATOM     20  C   UNL     1      22.384   2.458  18.920  1.00  0.00     0.265 C 
BRANCH  20  21
ATOM     21  O   UNL     1      21.407   2.177  19.890  1.00  0.00    -0.488 OA
BRANCH  21  22
ATOM     22  C   UNL     1      20.053   2.281  19.727  1.00  0.00     0.132 A 
ATOM     23  C   UNL     1      19.292   2.775  20.762  1.00  0.00     0.081 A 
ATOM     24  C   UNL     1      19.407   1.913  18.573  1.00  0.00     0.047 A 
ATOM     25  C   UNL     1      17.912   2.893  20.623  1.00  0.00     0.018 A 
ATOM     26  C   UNL     1      18.036   2.020  18.414  1.00  0.00     0.004 A 
ATOM     27  C   UNL     1      17.288   2.522  19.466  1.00  0.00     0.001 A 
BRANCH  23  28
ATOM     28  C   UNL     1      19.863   3.192  22.018  1.00  0.00     0.252 C 
ATOM     29  N   UNL     1      20.712   2.289  22.758  1.00  0.00    -0.365 N 
ATOM     30  O   UNL     1      19.658   4.309  22.513  1.00  0.00    -0.269 OA
ATOM     31  H   UNL     1      21.716   2.499  22.905  1.00  0.00     0.159 HD
ATOM     32  H   UNL     1      20.263   1.439  23.123  1.00  0.00     0.159 HD
ENDBRANCH  23  28
ENDBRANCH  21  22
ENDBRANCH  20  21
ENDBRANCH  18  20
ENDBRANCH  12  14
ENDBRANCH   9  10
ENDBRANCH   8   9
BRANCH   8  33
ATOM     33  N   UNL     1      17.713  -3.587  15.191  1.00  0.00    -0.337 N 
ATOM     34  C   UNL     1      18.185  -4.909  14.885  1.00  0.00     0.270 C 
ATOM     35  H   UNL     1      16.700  -3.403  15.070  1.00  0.00     0.164 HD
ATOM     36  O   UNL     1      19.402  -5.153  15.007  1.00  0.00    -0.268 OA
BRANCH  34  37
ATOM     37  C   UNL     1      17.252  -5.929  14.446  1.00  0.00     0.123 A 
ATOM     38  C   UNL     1      17.471  -6.877  13.464  1.00  0.00     0.058 A 
ATOM     39  N   UNL     1      15.997  -6.206  14.906  1.00  0.00    -0.273 N 
ATOM     40  C   UNL     1      16.365  -7.674  13.371  1.00  0.00     0.060 A 
ATOM     41  N   UNL     1      15.468  -7.232  14.278  1.00  0.00    -0.180 NA
ATOM     42  H   UNL     1      15.551  -5.649  15.664  1.00  0.00     0.190 HD
ATOM     43  C   UNL     1      16.153  -8.814  12.454  1.00  0.00     0.069 C 
ENDBRANCH  34  37
ENDBRANCH   8  33
ENDBRANCH   5   8
ENDBRANCH   3   4
ENDBRANCH   2   3
ENDBRANCH   1   2
BRANCH   1  44
ATOM     44  C   UNL     1      21.885   1.101  14.126  1.00  0.00     0.000 C 
BRANCH  44  45
ATOM     45  C   UNL     1      23.080   1.856  14.455  1.00  0.00     0.000 C 
BRANCH  45  46
ATOM     46  C   UNL     1      23.268   3.270  14.609  1.00  0.00     0.000 C 
BRANCH  46  47
ATOM     47  C   UNL     1      24.183   3.991  15.481  1.00  0.00     0.000 C 
BRANCH  47  48
ATOM     48  C   UNL     1      25.616   3.552  15.556  1.00  0.00     0.000 C 
BRANCH  48  49
ATOM     49  C   UNL     1      26.194   3.907  16.922  1.00  0.00     0.000 C 
BRANCH  49  50
ATOM     50  C   UNL     1      25.532   5.288  17.330  1.00  0.00     0.001 C 
BRANCH  50  51
ATOM     51  C   UNL     1      26.503   6.270  17.534  1.00  0.00     0.009 C 
BRANCH  51  52
ATOM     52  C   UNL     1      26.894   7.626  16.997  1.00  0.00    -0.012 C 
BRANCH  52  53
ATOM     53  C   UNL     1      26.428   8.634  18.054  1.00  0.00    -0.018 C 
ATOM     54  C   UNL     1      26.522  10.083  17.583  1.00  0.00     0.033 C 
ATOM     55  C   UNL     1      24.988   8.418  18.505  1.00  0.00     0.033 C 
ATOM     56  C   UNL     1      27.143   8.747  19.305  1.00  0.00     0.033 C 
ATOM     57  C   UNL     1      25.779  11.061  18.396  1.00  0.00     0.101 C 
ATOM     58  C   UNL     1      24.497   9.420  19.545  1.00  0.00     0.101 C 
ATOM     59  C   UNL     1      26.611   9.845  20.257  1.00  0.00     0.101 C 
ATOM     60  C   UNL     1      24.403  10.747  18.826  1.00  0.00     0.051 C 
ATOM     61  C   UNL     1      26.572  11.203  19.718  1.00  0.00     0.051 C 
ATOM     62  C   UNL     1      25.272   9.456  20.799  1.00  0.00     0.051 C 
BRANCH  57  63
ATOM     63  S   UNL     1      25.903  12.656  17.622  1.00  0.00     0.270 S 
ATOM     64  O   UNL     1      26.675  13.615  18.465  1.00  0.00    -0.199 OA
ATOM     65  O   UNL     1      24.498  13.222  17.486  1.00  0.00    -0.199 OA
BRANCH  63  66
ATOM     66  O   UNL     1      26.513  12.482  16.088  1.00  0.00    -0.285 OA
ATOM     67  H   UNL     1      26.818  13.327  15.723  1.00  0.00     0.234 HD
ENDBRANCH  63  66
ENDBRANCH  57  63
BRANCH  58  68
ATOM     68  S   UNL     1      22.835   8.969  20.018  1.00  0.00     0.270 S 
ATOM     69  O   UNL     1      22.718   7.464  20.117  1.00  0.00    -0.199 OA
ATOM     70  O   UNL     1      22.617   9.503  21.411  1.00  0.00    -0.199 OA
BRANCH  68  71
ATOM     71  O   UNL     1      21.695   9.622  19.014  1.00  0.00    -0.285 OA
ATOM     72  H   UNL     1      20.922   9.897  19.530  1.00  0.00     0.234 HD
ENDBRANCH  68  71
ENDBRANCH  58  68
BRANCH  59  73
ATOM     73  S   UNL     1      27.728   9.854  21.667  1.00  0.00     0.270 S 
ATOM     74  O   UNL     1      26.895   9.746  22.935  1.00  0.00    -0.199 OA
ATOM     75  O   UNL     1      28.564   8.631  21.601  1.00  0.00    -0.199 OA
BRANCH  73  76
ATOM     76  O   UNL     1      28.673  11.212  21.684  1.00  0.00    -0.285 OA
ATOM     77  H   UNL     1      29.651  11.013  21.614  1.00  0.00     0.234 HD
ENDBRANCH  73  76
ENDBRANCH  59  73
ENDBRANCH  52  53
BRANCH  52  78
ATOM     78  C   UNL     1      26.130   7.847  15.687  1.00  0.00    -0.018 C 
ATOM     79  C   UNL     1      24.678   8.026  15.740  1.00  0.00     0.033 C 
ATOM     80  C   UNL     1      26.471   6.925  14.575  1.00  0.00     0.033 C 
ATOM     81  C   UNL     1      26.611   9.125  14.971  1.00  0.00     0.033 C 
ATOM     82  C   UNL     1      23.995   8.411  14.415  1.00  0.00     0.101 C 
ATOM     83  C   UNL     1      25.606   7.044  13.352  1.00  0.00     0.101 C 
ATOM     84  C   UNL     1      25.933   9.325  13.618  1.00  0.00     0.101 C 
ATOM     85  C   UNL     1      24.167   7.200  13.498  1.00  0.00     0.051 C 
ATOM     86  C   UNL     1      24.466   9.675  13.852  1.00  0.00     0.051 C 
ATOM     87  C   UNL     1      26.107   8.295  12.602  1.00  0.00     0.051 C 
BRANCH  82  88
ATOM     88  S   UNL     1      22.238   8.522  14.765  1.00  0.00     0.270 S 
ATOM     89  O   UNL     1      21.497   7.422  14.072  1.00  0.00    -0.199 OA
ATOM     90  O   UNL     1      21.722   9.877  14.365  1.00  0.00    -0.199 OA
BRANCH  88  91
ATOM     91  O   UNL     1      22.009   8.395  16.431  1.00  0.00    -0.285 OA
ATOM     92  H   UNL     1      22.306   7.531  16.793  1.00  0.00     0.234 HD
ENDBRANCH  88  91
ENDBRANCH  82  88
BRANCH  83  93
ATOM     93  S   UNL     1      25.978   5.711  12.236  1.00  0.00     0.270 S 
ATOM     94  O   UNL     1      26.272   6.353  10.887  1.00  0.00    -0.199 OA
ATOM     95  O   UNL     1      24.723   4.905  12.046  1.00  0.00    -0.199 OA
BRANCH  93  96
ATOM     96  O   UNL     1      27.270   4.794  12.718  1.00  0.00    -0.285 OA
ATOM     97  H   UNL     1      27.060   4.299  13.529  1.00  0.00     0.234 HD
ENDBRANCH  93  96
ENDBRANCH  83  93
BRANCH  84  98
ATOM     98  S   UNL     1      26.638  10.840  12.937  1.00  0.00     0.270 S 
ATOM     99  O   UNL     1      25.788  12.024  13.198  1.00  0.00    -0.199 OA
ATOM    100  O   UNL     1      26.856  10.705  11.467  1.00  0.00    -0.199 OA
BRANCH  98 101
ATOM    101  O   UNL     1      28.159  11.101  13.637  1.00  0.00    -0.285 OA
ATOM    102  H   UNL     1      28.259  12.022  13.961  1.00  0.00     0.234 HD
ENDBRANCH  98 101
ENDBRANCH  84  98
ENDBRANCH  52  78
BRANCH  52 103
ATOM    103  C   UNL     1      28.378   7.492  16.804  1.00  0.00    -0.018 C 
ATOM    104  C   UNL     1      28.978   8.209  15.666  1.00  0.00     0.033 C 
ATOM    105  C   UNL     1      29.164   8.016  18.011  1.00  0.00     0.033 C 
ATOM    106  C   UNL     1      28.921   6.109  16.875  1.00  0.00     0.033 C 
ATOM    107  C   UNL     1      30.509   8.161  15.550  1.00  0.00     0.101 C 
ATOM    108  C   UNL     1      30.684   7.973  17.804  1.00  0.00     0.101 C 
ATOM    109  C   UNL     1      30.405   6.029  16.573  1.00  0.00     0.101 C 
ATOM    110  C   UNL     1      31.149   8.841  16.682  1.00  0.00     0.051 C 
ATOM    111  C   UNL     1      30.880   6.717  15.369  1.00  0.00     0.051 C 
ATOM    112  C   UNL     1      31.220   6.565  17.743  1.00  0.00     0.051 C 
BRANCH 107 113
ATOM    113  S   UNL     1      30.961   9.007  14.043  1.00  0.00     0.270 S 
ATOM    114  O   UNL     1      29.940   8.811  12.977  1.00  0.00    -0.199 OA
ATOM    115  O   UNL     1      32.325   8.571  13.612  1.00  0.00    -0.199 OA
BRANCH 113 116
ATOM    116  O   UNL     1      31.046  10.650  14.421  1.00  0.00    -0.285 OA
ATOM    117  H   UNL     1      31.618  10.825  15.188  1.00  0.00     0.234 HD
ENDBRANCH 113 116
ENDBRANCH 107 113
BRANCH 108 118
ATOM    118  S   UNL     1      31.426   8.683  19.287  1.00  0.00     0.270 S 
ATOM    119  O   UNL     1      30.825  10.004  19.581  1.00  0.00    -0.199 OA
ATOM    120  O   UNL     1      32.898   8.865  18.979  1.00  0.00    -0.199 OA
BRANCH 118 121
ATOM    121  O   UNL     1      31.291   7.582  20.528  1.00  0.00    -0.285 OA
ATOM    122  H   UNL     1      30.346   7.539  20.810  1.00  0.00     0.234 HD
ENDBRANCH 118 121
ENDBRANCH 108 118
BRANCH 109 123
ATOM    123  S   UNL     1      30.876   4.304  16.453  1.00  0.00     0.270 S 
ATOM    124  O   UNL     1      31.320   3.786  17.791  1.00  0.00    -0.199 OA
ATOM    125  O   UNL     1      32.007   4.124  15.505  1.00  0.00    -0.199 OA
BRANCH 123 126
ATOM    126  O   UNL     1      29.604   3.350  15.935  1.00  0.00    -0.285 OA
ATOM    127  H   UNL     1      29.312   2.808  16.706  1.00  0.00     0.234 HD
ENDBRANCH 123 126
ENDBRANCH 109 123
ENDBRANCH  52 103
ENDBRANCH  51  52
ENDBRANCH  50  51
ENDBRANCH  49  50
ENDBRANCH  48  49
ENDBRANCH  47  48
ENDBRANCH  46  47
ENDBRANCH  45  46
ENDBRANCH  44  45
ENDBRANCH   1  44
TORSDOF 43
ENDMDL
MODEL 2
REMARK VINA RESULT:    -9.875      0.962      3.399
REMARK INTER + INTRA:         -42.277
REMARK INTER:                 -32.634
REMARK INTRA:                  -9.643
REMARK UNBOUND:               -10.175
REMARK SMILES Cc1cc(C(=O)N[C@H](CNC(=O)c2cccc(COc3ccccc3C(N)=O)c2)C(=O)NCCCCCCCCCCCC([C@]23C[C@]4(S(=O)(=O)O)C[C@](S(=O)(=O)O)(C2)C[C@](S(=O)(=O)O)(C3)C4)([C@]23C[C@]4(S(=O)(=O)O)C[C@](S(=O)(=O)O)(C2)C[C@](S(=O)(=O)O)(C3)C4)[C@]23C[C@]4(S(=O)(=O)O)C[C@](S(=O)(=O)O)(C2)C[C@](S(=O)(=O)O)(C3)C4)[nH]n1
REMARK SMILES IDX 35 1 34 2 33 3 32 4 30 5 31 6 8 8 9 9 10 10 12 11 11 12
REMARK SMILES IDX 13 14 14 15 29 16 15 17 17 18 16 19 18 20 19 21 20 22 25 23
REMARK SMILES IDX 21 24 24 25 22 26 23 27 26 28 27 29 28 30 7 33 5 34 6 36
REMARK SMILES IDX 4 37 3 38 111 39 2 40 112 41 1 43 36 44 37 45 38 46 39 47
REMARK SMILES IDX 40 48 41 49 42 50 43 51 44 52 67 53 80 54 87 55 68 56 75 57
REMARK SMILES IDX 82 58 69 59 81 60 74 61 88 62 76 63 77 64 78 65 79 66 83 68
REMARK SMILES IDX 84 69 85 70 86 71 70 73 71 74 72 75 73 76 45 78 46 79 58 80
REMARK SMILES IDX 65 81 47 82 53 83 60 84 52 85 66 86 59 87 48 88 49 89 50 90
REMARK SMILES IDX 51 91 54 93 55 94 56 95 57 96 61 98 62 99 63 100 64 101
REMARK SMILES IDX 89 103 102 104 109 105 90 106 97 107 104 108 91 109 103 110
REMARK SMILES IDX 96 111 110 112 98 113 99 114 100 115 101 116 105 118 106 119
REMARK SMILES IDX 107 120 108 121 92 123 93 124 94 125 95 126
REMARK H PARENT 32 7 10 13 27 31 27 32 7 35 111 42 79 67 86 72 73 77 51 92
REMARK H PARENT 57 97 64 102 101 117 108 122 95 127
REMARK Flexibility Score: inf
ROOT
ATOM      1  C   UNL     1      20.423   1.472  14.690  1.00  0.00     0.002 C 
ENDROOT
BRANCH   1   2
ATOM      2  C   UNL     1      19.276   1.685  13.781  1.00  0.00     0.021 C 
BRANCH   2   3
ATOM      3  C   UNL     1      18.481   0.489  13.424  1.00  0.00     0.116 C 
BRANCH   3   4
ATOM      4  N   UNL     1      18.681  -0.713  14.111  1.00  0.00    -0.354 N 
ATOM      5  C   UNL     1      18.005  -1.248  15.203  1.00  0.00     0.244 C 
ATOM      6  O   UNL     1      17.072  -0.741  15.863  1.00  0.00    -0.273 OA
ATOM      7  H   UNL     1      19.497  -1.322  13.718  1.00  0.00     0.163 HD
BRANCH   5   8
ATOM      8  C   UNL     1      18.451  -2.645  15.648  1.00  0.00     0.191 C 
BRANCH   8   9
ATOM      9  C   UNL     1      18.733  -2.698  17.099  1.00  0.00     0.151 C 
BRANCH   9  10
ATOM     10  N   UNL     1      19.785  -1.702  17.414  1.00  0.00    -0.349 N 
ATOM     11  O   UNL     1      21.406  -3.028  16.349  1.00  0.00    -0.269 OA
ATOM     12  C   UNL     1      21.090  -2.002  16.981  1.00  0.00     0.251 C 
ATOM     13  H   UNL     1      19.523  -0.863  17.922  1.00  0.00     0.163 HD
BRANCH  12  14
ATOM     14  C   UNL     1      22.140  -1.007  17.316  1.00  0.00     0.040 A 
ATOM     15  C   UNL     1      23.446  -1.297  17.008  1.00  0.00     0.014 A 
ATOM     16  C   UNL     1      21.739   0.161  17.909  1.00  0.00     0.021 A 
ATOM     17  C   UNL     1      24.426  -0.353  17.316  1.00  0.00     0.001 A 
ATOM     18  C   UNL     1      22.699   1.084  18.209  1.00  0.00    -0.010 A 
ATOM     19  C   UNL     1      24.024   0.818  17.911  1.00  0.00     0.007 A 
BRANCH  18  20
ATOM     20  C   UNL     1      22.278   2.352  18.845  1.00  0.00     0.265 C 
BRANCH  20  21
ATOM     21  O   UNL     1      21.380   2.103  19.897  1.00  0.00    -0.488 OA
BRANCH  21  22
ATOM     22  C   UNL     1      20.026   2.288  19.864  1.00  0.00     0.132 A 
ATOM     23  C   UNL     1      19.385   2.732  20.998  1.00  0.00     0.081 A 
ATOM     24  C   UNL     1      19.264   2.050  18.747  1.00  0.00     0.047 A 
ATOM     25  C   UNL     1      18.007   2.930  20.993  1.00  0.00     0.018 A 
ATOM     26  C   UNL     1      17.893   2.240  18.720  1.00  0.00     0.004 A 
ATOM     27  C   UNL     1      17.267   2.689  19.871  1.00  0.00     0.001 A 
BRANCH  23  28
ATOM     28  C   UNL     1      20.084   3.013  22.227  1.00  0.00     0.252 C 
ATOM     29  N   UNL     1      21.005   2.043  22.769  1.00  0.00    -0.365 N 
ATOM     30  O   UNL     1      19.931   4.065  22.863  1.00  0.00    -0.269 OA
ATOM     31  H   UNL     1      22.019   2.248  22.835  1.00  0.00     0.159 HD
ATOM     32  H   UNL     1      20.597   1.153  23.082  1.00  0.00     0.159 HD
ENDBRANCH  23  28
ENDBRANCH  21  22
ENDBRANCH  20  21
ENDBRANCH  18  20
ENDBRANCH  12  14
ENDBRANCH   9  10
ENDBRANCH   8   9
BRANCH   8  33
ATOM     33  N   UNL     1      17.558  -3.658  15.166  1.00  0.00    -0.337 N 
ATOM     34  C   UNL     1      18.064  -4.966  14.854  1.00  0.00     0.270 C 
ATOM     35  H   UNL     1      16.543  -3.496  15.031  1.00  0.00     0.164 HD
ATOM     36  O   UNL     1      19.285  -5.183  14.992  1.00  0.00    -0.268 OA
BRANCH  34  37
ATOM     37  C   UNL     1      17.162  -6.002  14.390  1.00  0.00     0.123 A 
ATOM     38  C   UNL     1      17.404  -6.912  13.379  1.00  0.00     0.058 A 
ATOM     39  N   UNL     1      15.920  -6.334  14.850  1.00  0.00    -0.273 N 
ATOM     40  C   UNL     1      16.324  -7.741  13.268  1.00  0.00     0.060 A 
ATOM     41  N   UNL     1      15.420  -7.357  14.195  1.00  0.00    -0.180 NA
ATOM     42  H   UNL     1      15.462  -5.814  15.627  1.00  0.00     0.190 HD
ATOM     43  C   UNL     1      16.142  -8.860  12.319  1.00  0.00     0.069 C 
ENDBRANCH  34  37
ENDBRANCH   8  33
ENDBRANCH   5   8
ENDBRANCH   3   4
ENDBRANCH   2   3
ENDBRANCH   1   2
BRANCH   1  44
ATOM     44  C   UNL     1      21.614   0.934  13.893  1.00  0.00     0.000 C 
BRANCH  44  45
ATOM     45  C   UNL     1      22.933   1.406  14.265  1.00  0.00     0.000 C 
BRANCH  45  46
ATOM     46  C   UNL     1      23.345   2.667  14.814  1.00  0.00     0.000 C 
BRANCH  46  47
ATOM     47  C   UNL     1      24.613   3.041  15.420  1.00  0.00     0.000 C 
BRANCH  47  48
ATOM     48  C   UNL     1      24.731   4.374  16.098  1.00  0.00     0.000 C 
BRANCH  48  49
ATOM     49  C   UNL     1      25.198   4.183  17.538  1.00  0.00     0.000 C 
BRANCH  49  50
ATOM     50  C   UNL     1      25.421   5.640  18.121  1.00  0.00     0.001 C 
BRANCH  50  51
ATOM     51  C   UNL     1      26.359   6.347  17.364  1.00  0.00     0.009 C 
BRANCH  51  52
ATOM     52  C   UNL     1      26.804   7.770  17.128  1.00  0.00    -0.012 C 
BRANCH  52  53
ATOM     53  C   UNL     1      26.036   8.614  18.151  1.00  0.00    -0.018 C 
ATOM     54  C   UNL     1      26.609  10.019  18.319  1.00  0.00     0.033 C 
ATOM     55  C   UNL     1      24.560   8.786  17.810  1.00  0.00     0.033 C 
ATOM     56  C   UNL     1      25.999   8.207  19.537  1.00  0.00     0.033 C 
ATOM     57  C   UNL     1      25.731  10.980  19.008  1.00  0.00     0.101 C 
ATOM     58  C   UNL     1      23.779   9.637  18.806  1.00  0.00     0.101 C 
ATOM     59  C   UNL     1      25.247   9.179  20.477  1.00  0.00     0.101 C 
ATOM     60  C   UNL     1      24.303  11.047  18.644  1.00  0.00     0.051 C 
ATOM     61  C   UNL     1      25.729  10.559  20.498  1.00  0.00     0.051 C 
ATOM     62  C   UNL     1      23.778   9.140  20.193  1.00  0.00     0.051 C 
BRANCH  57  63
ATOM     63  S   UNL     1      26.512  12.577  18.993  1.00  0.00     0.270 S 
ATOM     64  O   UNL     1      27.987  12.467  19.194  1.00  0.00    -0.199 OA
ATOM     65  O   UNL     1      25.966  13.378  20.164  1.00  0.00    -0.199 OA
BRANCH  63  66
ATOM     66  O   UNL     1      26.091  13.386  17.605  1.00  0.00    -0.285 OA
ATOM     67  H   UNL     1      25.365  12.945  17.137  1.00  0.00     0.234 HD
ENDBRANCH  63  66
ENDBRANCH  57  63
BRANCH  58  68
ATOM     68  S   UNL     1      22.066   9.661  18.301  1.00  0.00     0.270 S 
ATOM     69  O   UNL     1      21.775   8.474  17.409  1.00  0.00    -0.199 OA
ATOM     70  O   UNL     1      21.240   9.467  19.548  1.00  0.00    -0.199 OA
BRANCH  68  71
ATOM     71  O   UNL     1      21.637  11.095  17.598  1.00  0.00    -0.285 OA
ATOM     72  H   UNL     1      22.322  11.370  16.970  1.00  0.00     0.234 HD
ENDBRANCH  68  71
ENDBRANCH  58  68
BRANCH  59  73
ATOM     73  S   UNL     1      25.445   8.511  22.135  1.00  0.00     0.270 S 
ATOM     74  O   UNL     1      26.713   9.097  22.736  1.00  0.00    -0.199 OA
ATOM     75  O   UNL     1      24.316   8.996  22.967  1.00  0.00    -0.199 OA
BRANCH  73  76
ATOM     76  O   UNL     1      25.496   6.857  22.120  1.00  0.00    -0.285 OA
ATOM     77  H   UNL     1      25.231   6.463  21.240  1.00  0.00     0.234 HD
ENDBRANCH  73  76
ENDBRANCH  59  73
ENDBRANCH  52  53
BRANCH  52  78
ATOM     78  C   UNL     1      26.387   8.159  15.705  1.00  0.00    -0.018 C 
ATOM     79  C   UNL     1      27.181   9.156  14.986  1.00  0.00     0.033 C 
ATOM     80  C   UNL     1      24.943   8.447  15.510  1.00  0.00     0.033 C 
ATOM     81  C   UNL     1      26.423   6.940  14.762  1.00  0.00     0.033 C 
ATOM     82  C   UNL     1      26.813   9.376  13.508  1.00  0.00     0.101 C 
ATOM     83  C   UNL     1      24.572   8.982  14.155  1.00  0.00     0.101 C 
ATOM     84  C   UNL     1      25.925   7.275  13.358  1.00  0.00     0.101 C 
ATOM     85  C   UNL     1      25.411   9.987  13.522  1.00  0.00     0.051 C 
ATOM     86  C   UNL     1      26.948   8.180  12.679  1.00  0.00     0.051 C 
ATOM     87  C   UNL     1      24.561   7.764  13.210  1.00  0.00     0.051 C 
BRANCH  82  88
ATOM     88  S   UNL     1      27.907  10.662  12.900  1.00  0.00     0.270 S 
ATOM     89  O   UNL     1      27.930  11.821  13.847  1.00  0.00    -0.199 OA
ATOM     90  O   UNL     1      27.484  11.083  11.519  1.00  0.00    -0.199 OA
BRANCH  88  91
ATOM     91  O   UNL     1      29.461  10.025  12.750  1.00  0.00    -0.285 OA
ATOM     92  H   UNL     1      30.016  10.517  12.104  1.00  0.00     0.234 HD
ENDBRANCH  88  91
ENDBRANCH  82  88
BRANCH  83  93
ATOM     93  S   UNL     1      22.875   9.511  14.178  1.00  0.00     0.270 S 
ATOM     94  O   UNL     1      22.533   9.906  12.747  1.00  0.00    -0.199 OA
ATOM     95  O   UNL     1      22.797  10.775  14.986  1.00  0.00    -0.199 OA
BRANCH  93  96
ATOM     96  O   UNL     1      21.830   8.340  14.705  1.00  0.00    -0.285 OA
ATOM     97  H   UNL     1      22.252   7.463  14.681  1.00  0.00     0.234 HD
ENDBRANCH  93  96
ENDBRANCH  83  93
BRANCH  84  98
ATOM     98  S   UNL     1      26.021   5.733  12.425  1.00  0.00     0.270 S 
ATOM     99  O   UNL     1      24.794   4.915  12.563  1.00  0.00    -0.199 OA
ATOM    100  O   UNL     1      27.201   4.928  12.858  1.00  0.00    -0.199 OA
BRANCH  98 101
ATOM    101  O   UNL     1      26.248   6.096  10.786  1.00  0.00    -0.285 OA
ATOM    102  H   UNL     1      27.113   6.529  10.624  1.00  0.00     0.234 HD
ENDBRANCH  98 101
ENDBRANCH  84  98
ENDBRANCH  52  78
BRANCH  52 103
ATOM    103  C   UNL     1      28.293   7.686  17.308  1.00  0.00    -0.018 C 
ATOM    104  C   UNL     1      28.813   7.801  18.682  1.00  0.00     0.033 C 
ATOM    105  C   UNL     1      28.857   6.345  16.824  1.00  0.00     0.033 C 
ATOM    106  C   UNL     1      29.109   8.520  16.386  1.00  0.00     0.033 C 
ATOM    107  C   UNL     1      30.324   7.594  18.867  1.00  0.00     0.101 C 
ATOM    108  C   UNL     1      30.362   6.198  17.078  1.00  0.00     0.101 C 
ATOM    109  C   UNL     1      30.595   8.471  16.684  1.00  0.00     0.101 C 
ATOM    110  C   UNL     1      30.719   6.222  18.528  1.00  0.00     0.051 C 
ATOM    111  C   UNL     1      31.005   8.676  18.076  1.00  0.00     0.051 C 
ATOM    112  C   UNL     1      31.187   7.140  16.237  1.00  0.00     0.051 C 
BRANCH 107 113
ATOM    113  S   UNL     1      30.701   7.892  20.587  1.00  0.00     0.270 S 
ATOM    114  O   UNL     1      31.847   8.829  20.743  1.00  0.00    -0.199 OA
ATOM    115  O   UNL     1      30.934   6.588  21.283  1.00  0.00    -0.199 OA
BRANCH 113 116
ATOM    116  O   UNL     1      29.325   8.594  21.266  1.00  0.00    -0.285 OA
ATOM    117  H   UNL     1      28.608   8.708  20.618  1.00  0.00     0.234 HD
ENDBRANCH 113 116
ENDBRANCH 107 113
BRANCH 108 118
ATOM    118  S   UNL     1      30.822   4.550  16.508  1.00  0.00     0.270 S 
ATOM    119  O   UNL     1      31.386   3.757  17.625  1.00  0.00    -0.199 OA
ATOM    120  O   UNL     1      31.890   4.748  15.452  1.00  0.00    -0.199 OA
BRANCH 118 121
ATOM    121  O   UNL     1      29.498   3.852  15.779  1.00  0.00    -0.285 OA
ATOM    122  H   UNL     1      28.772   4.518  15.739  1.00  0.00     0.234 HD
ENDBRANCH 118 121
ENDBRANCH 108 118
BRANCH 109 123
ATOM    123  S   UNL     1      31.427   9.692  15.671  1.00  0.00     0.270 S 
ATOM    124  O   UNL     1      31.813   9.102  14.345  1.00  0.00    -0.199 OA
ATOM    125  O   UNL     1      32.673  10.170  16.327  1.00  0.00    -0.199 OA
BRANCH 123 126
ATOM    126  O   UNL     1      30.451  11.017  15.373  1.00  0.00    -0.285 OA
ATOM    127  H   UNL     1      29.925  11.182  16.191  1.00  0.00     0.234 HD
ENDBRANCH 123 126
ENDBRANCH 109 123
ENDBRANCH  52 103
ENDBRANCH  51  52
ENDBRANCH  50  51
ENDBRANCH  49  50
ENDBRANCH  48  49
ENDBRANCH  47  48
ENDBRANCH  46  47
ENDBRANCH  45  46
ENDBRANCH  44  45
ENDBRANCH   1  44
TORSDOF 43
ENDMDL
MODEL 3
REMARK VINA RESULT:    -9.803      0.822      2.542
REMARK INTER + INTRA:         -42.043
REMARK INTER:                 -31.984
REMARK INTRA:                 -10.059
REMARK UNBOUND:               -10.175
REMARK SMILES Cc1cc(C(=O)N[C@H](CNC(=O)c2cccc(COc3ccccc3C(N)=O)c2)C(=O)NCCCCCCCCCCCC([C@]23C[C@]4(S(=O)(=O)O)C[C@](S(=O)(=O)O)(C2)C[C@](S(=O)(=O)O)(C3)C4)([C@]23C[C@]4(S(=O)(=O)O)C[C@](S(=O)(=O)O)(C2)C[C@](S(=O)(=O)O)(C3)C4)[C@]23C[C@]4(S(=O)(=O)O)C[C@](S(=O)(=O)O)(C2)C[C@](S(=O)(=O)O)(C3)C4)[nH]n1
REMARK SMILES IDX 35 1 34 2 33 3 32 4 30 5 31 6 8 8 9 9 10 10 12 11 11 12
REMARK SMILES IDX 13 14 14 15 29 16 15 17 17 18 16 19 18 20 19 21 20 22 25 23
REMARK SMILES IDX 21 24 24 25 22 26 23 27 26 28 27 29 28 30 7 33 5 34 6 36
REMARK SMILES IDX 4 37 3 38 111 39 2 40 112 41 1 43 36 44 37 45 38 46 39 47
REMARK SMILES IDX 40 48 41 49 42 50 43 51 44 52 67 53 80 54 87 55 68 56 75 57
REMARK SMILES IDX 82 58 69 59 81 60 74 61 88 62 76 63 77 64 78 65 79 66 83 68
REMARK SMILES IDX 84 69 85 70 86 71 70 73 71 74 72 75 73 76 45 78 46 79 58 80
REMARK SMILES IDX 65 81 47 82 53 83 60 84 52 85 66 86 59 87 48 88 49 89 50 90
REMARK SMILES IDX 51 91 54 93 55 94 56 95 57 96 61 98 62 99 63 100 64 101
REMARK SMILES IDX 89 103 102 104 109 105 90 106 97 107 104 108 91 109 103 110
REMARK SMILES IDX 96 111 110 112 98 113 99 114 100 115 101 116 105 118 106 119
REMARK SMILES IDX 107 120 108 121 92 123 93 124 94 125 95 126
REMARK H PARENT 32 7 10 13 27 31 27 32 7 35 111 42 79 67 86 72 73 77 51 92
REMARK H PARENT 57 97 64 102 101 117 108 122 95 127
REMARK Flexibility Score: inf
ROOT
ATOM      1  C   UNL     1      20.428   1.531  14.605  1.00  0.00     0.002 C 
ENDROOT
BRANCH   1   2
ATOM      2  C   UNL     1      19.326   1.728  13.638  1.00  0.00     0.021 C 
BRANCH   2   3
ATOM      3  C   UNL     1      18.382   0.600  13.468  1.00  0.00     0.116 C 
BRANCH   3   4
ATOM      4  N   UNL     1      18.611  -0.609  14.134  1.00  0.00    -0.354 N 
ATOM      5  C   UNL     1      17.971  -1.161  15.239  1.00  0.00     0.244 C 
ATOM      6  O   UNL     1      17.054  -0.669  15.931  1.00  0.00    -0.273 OA
ATOM      7  H   UNL     1      19.420  -1.206  13.710  1.00  0.00     0.163 HD
BRANCH   5   8
ATOM      8  C   UNL     1      18.440  -2.560  15.654  1.00  0.00     0.191 C 
BRANCH   8   9
ATOM      9  C   UNL     1      18.764  -2.627  17.096  1.00  0.00     0.151 C 
BRANCH   9  10
ATOM     10  N   UNL     1      19.874  -1.686  17.377  1.00  0.00    -0.349 N 
ATOM     11  O   UNL     1      21.395  -3.098  16.275  1.00  0.00    -0.269 OA
ATOM     12  C   UNL     1      21.149  -2.055  16.909  1.00  0.00     0.251 C 
ATOM     13  H   UNL     1      19.670  -0.832  17.887  1.00  0.00     0.163 HD
BRANCH  12  14
ATOM     14  C   UNL     1      22.259  -1.114  17.210  1.00  0.00     0.040 A 
ATOM     15  C   UNL     1      23.545  -1.494  16.918  1.00  0.00     0.014 A 
ATOM     16  C   UNL     1      21.929   0.098  17.758  1.00  0.00     0.021 A 
ATOM     17  C   UNL     1      24.580  -0.602  17.194  1.00  0.00     0.001 A 
ATOM     18  C   UNL     1      22.944   0.971  18.027  1.00  0.00    -0.010 A 
ATOM     19  C   UNL     1      24.251   0.614  17.743  1.00  0.00     0.007 A 
BRANCH  18  20
ATOM     20  C   UNL     1      22.600   2.285  18.612  1.00  0.00     0.265 C 
BRANCH  20  21
ATOM     21  O   UNL     1      21.218   2.373  18.852  1.00  0.00    -0.488 OA
BRANCH  21  22
ATOM     22  C   UNL     1      20.623   2.653  20.050  1.00  0.00     0.132 A 
ATOM     23  C   UNL     1      19.295   2.336  20.227  1.00  0.00     0.081 A 
ATOM     24  C   UNL     1      21.287   3.243  21.097  1.00  0.00     0.047 A 
ATOM     25  C   UNL     1      18.663   2.608  21.436  1.00  0.00     0.018 A 
ATOM     26  C   UNL     1      20.678   3.524  22.308  1.00  0.00     0.004 A 
ATOM     27  C   UNL     1      19.342   3.195  22.467  1.00  0.00     0.001 A 
BRANCH  23  28
ATOM     28  C   UNL     1      18.500   1.715  19.197  1.00  0.00     0.252 C 
ATOM     29  N   UNL     1      17.315   2.378  18.706  1.00  0.00    -0.365 N 
ATOM     30  O   UNL     1      18.781   0.616  18.700  1.00  0.00    -0.269 OA
ATOM     31  H   UNL     1      17.256   2.713  17.727  1.00  0.00     0.159 HD
ATOM     32  H   UNL     1      16.545   2.491  19.379  1.00  0.00     0.159 HD
ENDBRANCH  23  28
ENDBRANCH  21  22
ENDBRANCH  20  21
ENDBRANCH  18  20
ENDBRANCH  12  14
ENDBRANCH   9  10
ENDBRANCH   8   9
BRANCH   8  33
ATOM     33  N   UNL     1      17.541  -3.574  15.185  1.00  0.00    -0.337 N 
ATOM     34  C   UNL     1      18.040  -4.888  14.890  1.00  0.00     0.270 C 
ATOM     35  H   UNL     1      16.527  -3.408  15.050  1.00  0.00     0.164 HD
ATOM     36  O   UNL     1      19.259  -5.111  15.029  1.00  0.00    -0.268 OA
BRANCH  34  37
ATOM     37  C   UNL     1      17.131  -5.926  14.440  1.00  0.00     0.123 A 
ATOM     38  C   UNL     1      17.382  -6.874  13.467  1.00  0.00     0.058 A 
ATOM     39  N   UNL     1      15.874  -6.220  14.880  1.00  0.00    -0.273 N 
ATOM     40  C   UNL     1      16.291  -7.689  13.359  1.00  0.00     0.060 A 
ATOM     41  N   UNL     1      15.372  -7.258  14.249  1.00  0.00    -0.180 NA
ATOM     42  H   UNL     1      15.406  -5.667  15.628  1.00  0.00     0.190 HD
ATOM     43  C   UNL     1      16.112  -8.837  12.444  1.00  0.00     0.069 C 
ENDBRANCH  34  37
ENDBRANCH   8  33
ENDBRANCH   5   8
ENDBRANCH   3   4
ENDBRANCH   2   3
ENDBRANCH   1   2
BRANCH   1  44
ATOM     44  C   UNL     1      21.614   0.870  13.900  1.00  0.00     0.000 C 
BRANCH  44  45
ATOM     45  C   UNL     1      22.942   1.335  14.251  1.00  0.00     0.000 C 
BRANCH  45  46
ATOM     46  C   UNL     1      23.381   2.622  14.711  1.00  0.00     0.000 C 
BRANCH  46  47
ATOM     47  C   UNL     1      24.686   3.033  15.203  1.00  0.00     0.000 C 
BRANCH  47  48
ATOM     48  C   UNL     1      24.833   4.381  15.844  1.00  0.00     0.000 C 
BRANCH  48  49
ATOM     49  C   UNL     1      25.499   4.235  17.208  1.00  0.00     0.000 C 
BRANCH  49  50
ATOM     50  C   UNL     1      25.531   5.691  17.836  1.00  0.00     0.001 C 
BRANCH  50  51
ATOM     51  C   UNL     1      26.680   6.382  17.445  1.00  0.00     0.009 C 
BRANCH  51  52
ATOM     52  C   UNL     1      27.082   7.747  16.940  1.00  0.00    -0.012 C 
BRANCH  52  53
ATOM     53  C   UNL     1      26.622   8.733  18.020  1.00  0.00    -0.018 C 
ATOM     54  C   UNL     1      26.723  10.191  17.580  1.00  0.00     0.033 C 
ATOM     55  C   UNL     1      25.182   8.514  18.468  1.00  0.00     0.033 C 
ATOM     56  C   UNL     1      27.339   8.814  19.271  1.00  0.00     0.033 C 
ATOM     57  C   UNL     1      25.986  11.155  18.416  1.00  0.00     0.101 C 
ATOM     58  C   UNL     1      24.697   9.496  19.530  1.00  0.00     0.101 C 
ATOM     59  C   UNL     1      26.815   9.894  20.249  1.00  0.00     0.101 C 
ATOM     60  C   UNL     1      24.609  10.839  18.841  1.00  0.00     0.051 C 
ATOM     61  C   UNL     1      26.782  11.264  19.739  1.00  0.00     0.051 C 
ATOM     62  C   UNL     1      25.474   9.500  20.783  1.00  0.00     0.051 C 
BRANCH  57  63
ATOM     63  S   UNL     1      26.117  12.766  17.677  1.00  0.00     0.270 S 
ATOM     64  O   UNL     1      27.496  13.322  17.815  1.00  0.00    -0.199 OA
ATOM     65  O   UNL     1      25.187  13.705  18.430  1.00  0.00    -0.199 OA
BRANCH  63  66
ATOM     66  O   UNL     1      25.584  12.701  16.106  1.00  0.00    -0.285 OA
ATOM     67  H   UNL     1      25.647  13.564  15.668  1.00  0.00     0.234 HD
ENDBRANCH  63  66
ENDBRANCH  57  63
BRANCH  58  68
ATOM     68  S   UNL     1      23.034   9.043  19.996  1.00  0.00     0.270 S 
ATOM     69  O   UNL     1      22.866   7.542  19.913  1.00  0.00    -0.199 OA
ATOM     70  O   UNL     1      22.872   9.408  21.450  1.00  0.00    -0.199 OA
BRANCH  68  71
ATOM     71  O   UNL     1      21.892   9.852  19.115  1.00  0.00    -0.285 OA
ATOM     72  H   UNL     1      22.099  10.798  19.099  1.00  0.00     0.234 HD
ENDBRANCH  68  71
ENDBRANCH  58  68
BRANCH  59  73
ATOM     73  S   UNL     1      27.933   9.866  21.657  1.00  0.00     0.270 S 
ATOM     74  O   UNL     1      28.646  11.208  21.726  1.00  0.00    -0.199 OA
ATOM     75  O   UNL     1      27.118   9.753  22.892  1.00  0.00    -0.199 OA
BRANCH  73  76
ATOM     76  O   UNL     1      29.013   8.618  21.549  1.00  0.00    -0.285 OA
ATOM     77  H   UNL     1      29.768   8.693  22.201  1.00  0.00     0.234 HD
ENDBRANCH  73  76
ENDBRANCH  59  73
ENDBRANCH  52  53
BRANCH  52  78
ATOM     78  C   UNL     1      26.321   8.004  15.635  1.00  0.00    -0.018 C 
ATOM     79  C   UNL     1      26.352   6.981  14.588  1.00  0.00     0.033 C 
ATOM     80  C   UNL     1      26.521   9.341  15.021  1.00  0.00     0.033 C 
ATOM     81  C   UNL     1      24.812   8.186  15.897  1.00  0.00     0.033 C 
ATOM     82  C   UNL     1      25.434   7.225  13.377  1.00  0.00     0.101 C 
ATOM     83  C   UNL     1      25.901   9.525  13.664  1.00  0.00     0.101 C 
ATOM     84  C   UNL     1      24.038   8.533  14.627  1.00  0.00     0.101 C 
ATOM     85  C   UNL     1      25.997   8.461  12.677  1.00  0.00     0.051 C 
ATOM     86  C   UNL     1      24.015   7.310  13.717  1.00  0.00     0.051 C 
ATOM     87  C   UNL     1      24.397   9.753  13.915  1.00  0.00     0.051 C 
BRANCH  82  88
ATOM     88  S   UNL     1      25.706   5.853  12.252  1.00  0.00     0.270 S 
ATOM     89  O   UNL     1      25.999   6.357  10.873  1.00  0.00    -0.199 OA
ATOM     90  O   UNL     1      24.512   4.936  12.265  1.00  0.00    -0.199 OA
BRANCH  88  91
ATOM     91  O   UNL     1      27.011   4.944  12.811  1.00  0.00    -0.285 OA
ATOM     92  H   UNL     1      27.391   4.356  12.120  1.00  0.00     0.234 HD
ENDBRANCH  88  91
ENDBRANCH  82  88
BRANCH  83  93
ATOM     93  S   UNL     1      26.449  11.069  12.973  1.00  0.00     0.270 S 
ATOM     94  O   UNL     1      27.276  10.717  11.745  1.00  0.00    -0.199 OA
ATOM     95  O   UNL     1      27.404  11.697  13.949  1.00  0.00    -0.199 OA
BRANCH  93  96
ATOM     96  O   UNL     1      25.205  12.075  12.546  1.00  0.00    -0.285 OA
ATOM     97  H   UNL     1      24.754  12.423  13.336  1.00  0.00     0.234 HD
ENDBRANCH  93  96
ENDBRANCH  83  93
BRANCH  84  98
ATOM     98  S   UNL     1      22.319   8.727  15.141  1.00  0.00     0.270 S 
ATOM     99  O   UNL     1      21.831  10.114  14.963  1.00  0.00    -0.199 OA
ATOM    100  O   UNL     1      22.148   8.324  16.568  1.00  0.00    -0.199 OA
BRANCH  98 101
ATOM    101  O   UNL     1      21.350   7.689  14.218  1.00  0.00    -0.285 OA
ATOM    102  H   UNL     1      21.865   6.941  13.847  1.00  0.00     0.234 HD
ENDBRANCH  98 101
ENDBRANCH  84  98
ENDBRANCH  52  78
BRANCH  52 103
ATOM    103  C   UNL     1      28.565   7.606  16.745  1.00  0.00    -0.018 C 
ATOM    104  C   UNL     1      29.158   8.273  15.574  1.00  0.00     0.033 C 
ATOM    105  C   UNL     1      29.357   8.182  17.925  1.00  0.00     0.033 C 
ATOM    106  C   UNL     1      29.109   6.227  16.873  1.00  0.00     0.033 C 
ATOM    107  C   UNL     1      30.688   8.222  15.452  1.00  0.00     0.101 C 
ATOM    108  C   UNL     1      30.875   8.131  17.712  1.00  0.00     0.101 C 
ATOM    109  C   UNL     1      30.592   6.135  16.567  1.00  0.00     0.101 C 
ATOM    110  C   UNL     1      31.334   8.950  16.551  1.00  0.00     0.051 C 
ATOM    111  C   UNL     1      31.061   6.771  15.332  1.00  0.00     0.051 C 
ATOM    112  C   UNL     1      31.412   6.722  17.708  1.00  0.00     0.051 C 
BRANCH 107 113
ATOM    113  S   UNL     1      31.132   9.002  13.908  1.00  0.00     0.270 S 
ATOM    114  O   UNL     1      31.660   8.015  12.927  1.00  0.00    -0.199 OA
ATOM    115  O   UNL     1      32.094  10.118  14.167  1.00  0.00    -0.199 OA
BRANCH 113 116
ATOM    116  O   UNL     1      29.717   9.682  13.289  1.00  0.00    -0.285 OA
ATOM    117  H   UNL     1      29.525  10.555  13.674  1.00  0.00     0.234 HD
ENDBRANCH 113 116
ENDBRANCH 107 113
BRANCH 108 118
ATOM    118  S   UNL     1      31.624   8.905  19.158  1.00  0.00     0.270 S 
ATOM    119  O   UNL     1      33.060   9.172  18.915  1.00  0.00    -0.199 OA
ATOM    120  O   UNL     1      31.489   7.908  20.291  1.00  0.00    -0.199 OA
BRANCH 118 121
ATOM    121  O   UNL     1      30.738  10.258  19.555  1.00  0.00    -0.285 OA
ATOM    122  H   UNL     1      31.295  10.846  20.117  1.00  0.00     0.234 HD
ENDBRANCH 118 121
ENDBRANCH 108 118
BRANCH 109 123
ATOM    123  S   UNL     1      31.064   4.407  16.519  1.00  0.00     0.270 S 
ATOM    124  O   UNL     1      32.138   4.183  15.493  1.00  0.00    -0.199 OA
ATOM    125  O   UNL     1      29.908   3.548  16.152  1.00  0.00    -0.199 OA
BRANCH 123 126
ATOM    126  O   UNL     1      31.655   3.887  17.995  1.00  0.00    -0.285 OA
ATOM    127  H   UNL     1      32.521   4.338  18.139  1.00  0.00     0.234 HD
ENDBRANCH 123 126
ENDBRANCH 109 123
ENDBRANCH  52 103
ENDBRANCH  51  52
ENDBRANCH  50  51
ENDBRANCH  49  50
ENDBRANCH  48  49
ENDBRANCH  47  48
ENDBRANCH  46  47
ENDBRANCH  45  46
ENDBRANCH  44  45
ENDBRANCH   1  44
TORSDOF 43
ENDMDL
MODEL 4
REMARK VINA RESULT:    -9.783      0.498      3.044
REMARK INTER + INTRA:         -41.975
REMARK INTER:                 -32.505
REMARK INTRA:                  -9.471
REMARK UNBOUND:               -10.175
REMARK SMILES Cc1cc(C(=O)N[C@H](CNC(=O)c2cccc(COc3ccccc3C(N)=O)c2)C(=O)NCCCCCCCCCCCC([C@]23C[C@]4(S(=O)(=O)O)C[C@](S(=O)(=O)O)(C2)C[C@](S(=O)(=O)O)(C3)C4)([C@]23C[C@]4(S(=O)(=O)O)C[C@](S(=O)(=O)O)(C2)C[C@](S(=O)(=O)O)(C3)C4)[C@]23C[C@]4(S(=O)(=O)O)C[C@](S(=O)(=O)O)(C2)C[C@](S(=O)(=O)O)(C3)C4)[nH]n1
REMARK SMILES IDX 35 1 34 2 33 3 32 4 30 5 31 6 8 8 9 9 10 10 12 11 11 12
REMARK SMILES IDX 13 14 14 15 29 16 15 17 17 18 16 19 18 20 19 21 20 22 25 23
REMARK SMILES IDX 21 24 24 25 22 26 23 27 26 28 27 29 28 30 7 33 5 34 6 36
REMARK SMILES IDX 4 37 3 38 111 39 2 40 112 41 1 43 36 44 37 45 38 46 39 47
REMARK SMILES IDX 40 48 41 49 42 50 43 51 44 52 67 53 80 54 87 55 68 56 75 57
REMARK SMILES IDX 82 58 69 59 81 60 74 61 88 62 76 63 77 64 78 65 79 66 83 68
REMARK SMILES IDX 84 69 85 70 86 71 70 73 71 74 72 75 73 76 45 78 46 79 58 80
REMARK SMILES IDX 65 81 47 82 53 83 60 84 52 85 66 86 59 87 48 88 49 89 50 90
REMARK SMILES IDX 51 91 54 93 55 94 56 95 57 96 61 98 62 99 63 100 64 101
REMARK SMILES IDX 89 103 102 104 109 105 90 106 97 107 104 108 91 109 103 110
REMARK SMILES IDX 96 111 110 112 98 113 99 114 100 115 101 116 105 118 106 119
REMARK SMILES IDX 107 120 108 121 92 123 93 124 94 125 95 126
REMARK H PARENT 32 7 10 13 27 31 27 32 7 35 111 42 79 67 86 72 73 77 51 92
REMARK H PARENT 57 97 64 102 101 117 108 122 95 127
REMARK Flexibility Score: inf
ROOT
ATOM      1  C   UNL     1      20.369   1.534  14.563  1.00  0.00     0.002 C 
ENDROOT
BRANCH   1   2
ATOM      2  C   UNL     1      19.279   1.718  13.581  1.00  0.00     0.021 C 
BRANCH   2   3
ATOM      3  C   UNL     1      18.520   0.507  13.196  1.00  0.00     0.116 C 
BRANCH   3   4
ATOM      4  N   UNL     1      18.725  -0.694  13.884  1.00  0.00    -0.354 N 
ATOM      5  C   UNL     1      18.020  -1.255  14.943  1.00  0.00     0.244 C 
ATOM      6  O   UNL     1      17.045  -0.779  15.566  1.00  0.00    -0.273 OA
ATOM      7  H   UNL     1      19.574  -1.277  13.521  1.00  0.00     0.163 HD
BRANCH   5   8
ATOM      8  C   UNL     1      18.486  -2.642  15.399  1.00  0.00     0.191 C 
BRANCH   8   9
ATOM      9  C   UNL     1      18.774  -2.678  16.849  1.00  0.00     0.151 C 
BRANCH   9  10
ATOM     10  N   UNL     1      19.821  -1.674  17.149  1.00  0.00    -0.349 N 
ATOM     11  O   UNL     1      21.502  -3.190  16.520  1.00  0.00    -0.269 OA
ATOM     12  C   UNL     1      21.156  -2.072  16.944  1.00  0.00     0.251 C 
ATOM     13  H   UNL     1      19.536  -0.760  17.487  1.00  0.00     0.163 HD
BRANCH  12  14
ATOM     14  C   UNL     1      22.200  -1.065  17.264  1.00  0.00     0.040 A 
ATOM     15  C   UNL     1      23.509  -1.355  16.971  1.00  0.00     0.014 A 
ATOM     16  C   UNL     1      21.790   0.114  17.830  1.00  0.00     0.021 A 
ATOM     17  C   UNL     1      24.483  -0.401  17.265  1.00  0.00     0.001 A 
ATOM     18  C   UNL     1      22.744   1.047  18.117  1.00  0.00    -0.010 A 
ATOM     19  C   UNL     1      24.073   0.781  17.833  1.00  0.00     0.007 A 
BRANCH  18  20
ATOM     20  C   UNL     1      22.313   2.326  18.722  1.00  0.00     0.265 C 
BRANCH  20  21
ATOM     21  O   UNL     1      21.389   2.097  19.756  1.00  0.00    -0.488 OA
BRANCH  21  22
ATOM     22  C   UNL     1      20.032   2.237  19.671  1.00  0.00     0.132 A 
ATOM     23  C   UNL     1      19.339   2.704  20.764  1.00  0.00     0.081 A 
ATOM     24  C   UNL     1      19.316   1.931  18.540  1.00  0.00     0.047 A 
ATOM     25  C   UNL     1      17.957   2.858  20.706  1.00  0.00     0.018 A 
ATOM     26  C   UNL     1      17.942   2.075  18.460  1.00  0.00     0.004 A 
ATOM     27  C   UNL     1      17.263   2.548  19.570  1.00  0.00     0.001 A 
BRANCH  23  28
ATOM     28  C   UNL     1      19.986   3.056  22.004  1.00  0.00     0.252 C 
ATOM     29  N   UNL     1      20.899   2.128  22.627  1.00  0.00    -0.365 N 
ATOM     30  O   UNL     1      19.795   4.136  22.579  1.00  0.00    -0.269 OA
ATOM     31  H   UNL     1      21.906   2.350  22.721  1.00  0.00     0.159 HD
ATOM     32  H   UNL     1      20.490   1.248  22.969  1.00  0.00     0.159 HD
ENDBRANCH  23  28
ENDBRANCH  21  22
ENDBRANCH  20  21
ENDBRANCH  18  20
ENDBRANCH  12  14
ENDBRANCH   9  10
ENDBRANCH   8   9
BRANCH   8  33
ATOM     33  N   UNL     1      17.605  -3.671  14.928  1.00  0.00    -0.337 N 
ATOM     34  C   UNL     1      18.098  -5.010  14.760  1.00  0.00     0.270 C 
ATOM     35  H   UNL     1      16.609  -3.498  14.702  1.00  0.00     0.164 HD
ATOM     36  O   UNL     1      19.297  -5.242  15.011  1.00  0.00    -0.268 OA
BRANCH  34  37
ATOM     37  C   UNL     1      17.205  -6.061  14.310  1.00  0.00     0.123 A 
ATOM     38  C   UNL     1      17.472  -7.008  13.339  1.00  0.00     0.058 A 
ATOM     39  N   UNL     1      15.950  -6.372  14.746  1.00  0.00    -0.273 N 
ATOM     40  C   UNL     1      16.393  -7.838  13.229  1.00  0.00     0.060 A 
ATOM     41  N   UNL     1      15.465  -7.418  14.115  1.00  0.00    -0.180 NA
ATOM     42  H   UNL     1      15.472  -5.824  15.491  1.00  0.00     0.190 HD
ATOM     43  C   UNL     1      16.234  -8.990  12.316  1.00  0.00     0.069 C 
ENDBRANCH  34  37
ENDBRANCH   8  33
ENDBRANCH   5   8
ENDBRANCH   3   4
ENDBRANCH   2   3
ENDBRANCH   1   2
BRANCH   1  44
ATOM     44  C   UNL     1      21.596   0.947  13.860  1.00  0.00     0.000 C 
BRANCH  44  45
ATOM     45  C   UNL     1      22.900   1.391  14.314  1.00  0.00     0.000 C 
BRANCH  45  46
ATOM     46  C   UNL     1      23.344   2.693  14.725  1.00  0.00     0.000 C 
BRANCH  46  47
ATOM     47  C   UNL     1      24.656   3.119  15.183  1.00  0.00     0.000 C 
BRANCH  47  48
ATOM     48  C   UNL     1      24.794   4.450  15.864  1.00  0.00     0.000 C 
BRANCH  48  49
ATOM     49  C   UNL     1      25.557   4.284  17.174  1.00  0.00     0.000 C 
BRANCH  49  50
ATOM     50  C   UNL     1      25.615   5.725  17.830  1.00  0.00     0.001 C 
BRANCH  50  51
ATOM     51  C   UNL     1      26.767   6.410  17.439  1.00  0.00     0.009 C 
BRANCH  51  52
ATOM     52  C   UNL     1      27.177   7.772  16.933  1.00  0.00    -0.012 C 
BRANCH  52  53
ATOM     53  C   UNL     1      26.717   8.763  18.009  1.00  0.00    -0.018 C 
ATOM     54  C   UNL     1      26.798  10.218  17.557  1.00  0.00     0.033 C 
ATOM     55  C   UNL     1      25.284   8.532  18.474  1.00  0.00     0.033 C 
ATOM     56  C   UNL     1      27.445   8.862  19.253  1.00  0.00     0.033 C 
ATOM     57  C   UNL     1      26.058  11.181  18.392  1.00  0.00     0.101 C 
ATOM     58  C   UNL     1      24.798   9.517  19.532  1.00  0.00     0.101 C 
ATOM     59  C   UNL     1      26.918   9.944  20.227  1.00  0.00     0.101 C 
ATOM     60  C   UNL     1      24.689  10.854  18.833  1.00  0.00     0.051 C 
ATOM     61  C   UNL     1      26.866  11.310  19.706  1.00  0.00     0.051 C 
ATOM     62  C   UNL     1      25.587   9.540  20.778  1.00  0.00     0.051 C 
BRANCH  57  63
ATOM     63  S   UNL     1      26.164  12.787  17.639  1.00  0.00     0.270 S 
ATOM     64  O   UNL     1      25.137  12.961  16.570  1.00  0.00    -0.199 OA
ATOM     65  O   UNL     1      27.523  12.901  16.965  1.00  0.00    -0.199 OA
BRANCH  63  66
ATOM     66  O   UNL     1      26.100  13.957  18.816  1.00  0.00    -0.285 OA
ATOM     67  H   UNL     1      25.211  14.337  18.897  1.00  0.00     0.234 HD
ENDBRANCH  63  66
ENDBRANCH  57  63
BRANCH  58  68
ATOM     68  S   UNL     1      23.144   9.050  20.018  1.00  0.00     0.270 S 
ATOM     69  O   UNL     1      22.940   7.569  19.789  1.00  0.00    -0.199 OA
ATOM     70  O   UNL     1      23.048   9.266  21.507  1.00  0.00    -0.199 OA
BRANCH  68  71
ATOM     71  O   UNL     1      21.987   9.967  19.272  1.00  0.00    -0.285 OA
ATOM     72  H   UNL     1      21.862  10.795  19.759  1.00  0.00     0.234 HD
ENDBRANCH  68  71
ENDBRANCH  58  68
BRANCH  59  73
ATOM     73  S   UNL     1      28.050   9.940  21.624  1.00  0.00     0.270 S 
ATOM     74  O   UNL     1      28.734  11.298  21.688  1.00  0.00    -0.199 OA
ATOM     75  O   UNL     1      27.250   9.808  22.866  1.00  0.00    -0.199 OA
BRANCH  73  76
ATOM     76  O   UNL     1      29.157   8.716  21.505  1.00  0.00    -0.285 OA
ATOM     77  H   UNL     1      28.767   7.865  21.152  1.00  0.00     0.234 HD
ENDBRANCH  73  76
ENDBRANCH  59  73
ENDBRANCH  52  53
BRANCH  52  78
ATOM     78  C   UNL     1      26.422   8.030  15.624  1.00  0.00    -0.018 C 
ATOM     79  C   UNL     1      26.466   7.012  14.573  1.00  0.00     0.033 C 
ATOM     80  C   UNL     1      26.617   9.372  15.018  1.00  0.00     0.033 C 
ATOM     81  C   UNL     1      24.910   8.201  15.878  1.00  0.00     0.033 C 
ATOM     82  C   UNL     1      25.554   7.255  13.358  1.00  0.00     0.101 C 
ATOM     83  C   UNL     1      26.004   9.557  13.658  1.00  0.00     0.101 C 
ATOM     84  C   UNL     1      24.142   8.549  14.605  1.00  0.00     0.101 C 
ATOM     85  C   UNL     1      26.113   8.498  12.667  1.00  0.00     0.051 C 
ATOM     86  C   UNL     1      24.133   7.329  13.690  1.00  0.00     0.051 C 
ATOM     87  C   UNL     1      24.497   9.774  13.901  1.00  0.00     0.051 C 
BRANCH  82  88
ATOM     88  S   UNL     1      25.841   5.889  12.229  1.00  0.00     0.270 S 
ATOM     89  O   UNL     1      26.996   5.059  12.695  1.00  0.00    -0.199 OA
ATOM     90  O   UNL     1      26.062   6.414  10.836  1.00  0.00    -0.199 OA
BRANCH  88  91
ATOM     91  O   UNL     1      24.451   4.937  12.166  1.00  0.00    -0.285 OA
ATOM     92  H   UNL     1      24.281   4.568  11.271  1.00  0.00     0.234 HD
ENDBRANCH  88  91
ENDBRANCH  82  88
BRANCH  83  93
ATOM     93  S   UNL     1      26.546  11.108  12.977  1.00  0.00     0.270 S 
ATOM     94  O   UNL     1      25.458  11.550  12.007  1.00  0.00    -0.199 OA
ATOM     95  O   UNL     1      27.764  10.841  12.138  1.00  0.00    -0.199 OA
BRANCH  93  96
ATOM     96  O   UNL     1      26.791  12.278  14.122  1.00  0.00    -0.285 OA
ATOM     97  H   UNL     1      26.072  12.276  14.778  1.00  0.00     0.234 HD
ENDBRANCH  93  96
ENDBRANCH  83  93
BRANCH  84  98
ATOM     98  S   UNL     1      22.419   8.729  15.110  1.00  0.00     0.270 S 
ATOM     99  O   UNL     1      21.507   7.877  14.313  1.00  0.00    -0.199 OA
ATOM    100  O   UNL     1      21.984  10.153  15.000  1.00  0.00    -0.199 OA
BRANCH  98 101
ATOM    101  O   UNL     1      22.276   8.297  16.742  1.00  0.00    -0.285 OA
ATOM    102  H   UNL     1      23.088   7.859  17.076  1.00  0.00     0.234 HD
ENDBRANCH  98 101
ENDBRANCH  84  98
ENDBRANCH  52  78
BRANCH  52 103
ATOM    103  C   UNL     1      28.660   7.625  16.745  1.00  0.00    -0.018 C 
ATOM    104  C   UNL     1      29.531   8.178  17.796  1.00  0.00     0.033 C 
ATOM    105  C   UNL     1      29.086   6.155  16.664  1.00  0.00     0.033 C 
ATOM    106  C   UNL     1      29.185   7.996  15.404  1.00  0.00     0.033 C 
ATOM    107  C   UNL     1      31.038   7.916  17.651  1.00  0.00     0.101 C 
ATOM    108  C   UNL     1      30.606   5.974  16.561  1.00  0.00     0.101 C 
ATOM    109  C   UNL     1      30.697   7.922  15.308  1.00  0.00     0.101 C 
ATOM    110  C   UNL     1      31.341   6.484  17.756  1.00  0.00     0.051 C 
ATOM    111  C   UNL     1      31.467   8.576  16.371  1.00  0.00     0.051 C 
ATOM    112  C   UNL     1      31.161   6.472  15.250  1.00  0.00     0.051 C 
BRANCH 107 113
ATOM    113  S   UNL     1      31.863   8.776  18.981  1.00  0.00     0.270 S 
ATOM    114  O   UNL     1      33.182   9.317  18.550  1.00  0.00    -0.199 OA
ATOM    115  O   UNL     1      31.980   7.872  20.168  1.00  0.00    -0.199 OA
BRANCH 113 116
ATOM    116  O   UNL     1      30.862  10.063  19.417  1.00  0.00    -0.285 OA
ATOM    117  H   UNL     1      31.183  10.533  20.206  1.00  0.00     0.234 HD
ENDBRANCH 113 116
ENDBRANCH 107 113
BRANCH 108 118
ATOM    118  S   UNL     1      30.912   4.197  16.544  1.00  0.00     0.270 S 
ATOM    119  O   UNL     1      31.361   3.738  17.879  1.00  0.00    -0.199 OA
ATOM    120  O   UNL     1      32.025   3.967  15.541  1.00  0.00    -0.199 OA
BRANCH 118 121
ATOM    121  O   UNL     1      29.546   3.427  15.984  1.00  0.00    -0.285 OA
ATOM    122  H   UNL     1      29.674   2.453  16.073  1.00  0.00     0.234 HD
ENDBRANCH 118 121
ENDBRANCH 108 118
BRANCH 109 123
ATOM    123  S   UNL     1      31.210   8.618  13.738  1.00  0.00     0.270 S 
ATOM    124  O   UNL     1      31.756   7.545  12.840  1.00  0.00    -0.199 OA
ATOM    125  O   UNL     1      32.282   9.630  13.929  1.00  0.00    -0.199 OA
BRANCH 123 126
ATOM    126  O   UNL     1      29.936   9.350  12.941  1.00  0.00    -0.285 OA
ATOM    127  H   UNL     1      30.321  10.018  12.325  1.00  0.00     0.234 HD
ENDBRANCH 123 126
ENDBRANCH 109 123
ENDBRANCH  52 103
ENDBRANCH  51  52
ENDBRANCH  50  51
ENDBRANCH  49  50
ENDBRANCH  48  49
ENDBRANCH  47  48
ENDBRANCH  46  47
ENDBRANCH  45  46
ENDBRANCH  44  45
ENDBRANCH   1  44
TORSDOF 43
ENDMDL
MODEL 5
REMARK VINA RESULT:    -9.713      1.170      2.771
REMARK INTER + INTRA:         -41.748
REMARK INTER:                 -31.822
REMARK INTRA:                  -9.926
REMARK UNBOUND:               -10.175
REMARK SMILES Cc1cc(C(=O)N[C@H](CNC(=O)c2cccc(COc3ccccc3C(N)=O)c2)C(=O)NCCCCCCCCCCCC([C@]23C[C@]4(S(=O)(=O)O)C[C@](S(=O)(=O)O)(C2)C[C@](S(=O)(=O)O)(C3)C4)([C@]23C[C@]4(S(=O)(=O)O)C[C@](S(=O)(=O)O)(C2)C[C@](S(=O)(=O)O)(C3)C4)[C@]23C[C@]4(S(=O)(=O)O)C[C@](S(=O)(=O)O)(C2)C[C@](S(=O)(=O)O)(C3)C4)[nH]n1
REMARK SMILES IDX 35 1 34 2 33 3 32 4 30 5 31 6 8 8 9 9 10 10 12 11 11 12
REMARK SMILES IDX 13 14 14 15 29 16 15 17 17 18 16 19 18 20 19 21 20 22 25 23
REMARK SMILES IDX 21 24 24 25 22 26 23 27 26 28 27 29 28 30 7 33 5 34 6 36
REMARK SMILES IDX 4 37 3 38 111 39 2 40 112 41 1 43 36 44 37 45 38 46 39 47
REMARK SMILES IDX 40 48 41 49 42 50 43 51 44 52 67 53 80 54 87 55 68 56 75 57
REMARK SMILES IDX 82 58 69 59 81 60 74 61 88 62 76 63 77 64 78 65 79 66 83 68
REMARK SMILES IDX 84 69 85 70 86 71 70 73 71 74 72 75 73 76 45 78 46 79 58 80
REMARK SMILES IDX 65 81 47 82 53 83 60 84 52 85 66 86 59 87 48 88 49 89 50 90
REMARK SMILES IDX 51 91 54 93 55 94 56 95 57 96 61 98 62 99 63 100 64 101
REMARK SMILES IDX 89 103 102 104 109 105 90 106 97 107 104 108 91 109 103 110
REMARK SMILES IDX 96 111 110 112 98 113 99 114 100 115 101 116 105 118 106 119
REMARK SMILES IDX 107 120 108 121 92 123 93 124 94 125 95 126
REMARK H PARENT 32 7 10 13 27 31 27 32 7 35 111 42 79 67 86 72 73 77 51 92
REMARK H PARENT 57 97 64 102 101 117 108 122 95 127
REMARK Flexibility Score: inf
ROOT
ATOM      1  C   UNL     1      19.926   1.645  14.537  1.00  0.00     0.002 C 
ENDROOT
BRANCH   1   2
ATOM      2  C   UNL     1      18.845   1.720  13.529  1.00  0.00     0.021 C 
BRANCH   2   3
ATOM      3  C   UNL     1      18.218   0.440  13.132  1.00  0.00     0.116 C 
BRANCH   3   4
ATOM      4  N   UNL     1      18.485  -0.725  13.860  1.00  0.00    -0.354 N 
ATOM      5  C   UNL     1      17.949  -1.177  15.061  1.00  0.00     0.244 C 
ATOM      6  O   UNL     1      17.119  -0.608  15.803  1.00  0.00    -0.273 OA
ATOM      7  H   UNL     1      19.232  -1.376  13.401  1.00  0.00     0.163 HD
BRANCH   5   8
ATOM      8  C   UNL     1      18.425  -2.556  15.530  1.00  0.00     0.191 C 
BRANCH   8   9
ATOM      9  C   UNL     1      18.734  -2.571  16.976  1.00  0.00     0.151 C 
BRANCH   9  10
ATOM     10  N   UNL     1      19.848  -1.629  17.233  1.00  0.00    -0.349 N 
ATOM     11  O   UNL     1      21.414  -3.242  16.552  1.00  0.00    -0.269 OA
ATOM     12  C   UNL     1      21.149  -2.103  16.981  1.00  0.00     0.251 C 
ATOM     13  H   UNL     1      19.628  -0.698  17.575  1.00  0.00     0.163 HD
BRANCH  12  14
ATOM     14  C   UNL     1      22.260  -1.158  17.258  1.00  0.00     0.040 A 
ATOM     15  C   UNL     1      23.539  -1.527  16.923  1.00  0.00     0.014 A 
ATOM     16  C   UNL     1      21.940   0.047  17.827  1.00  0.00     0.021 A 
ATOM     17  C   UNL     1      24.576  -0.629  17.176  1.00  0.00     0.001 A 
ATOM     18  C   UNL     1      22.956   0.924  18.073  1.00  0.00    -0.010 A 
ATOM     19  C   UNL     1      24.256   0.578  17.747  1.00  0.00     0.007 A 
BRANCH  18  20
ATOM     20  C   UNL     1      22.621   2.230  18.682  1.00  0.00     0.265 C 
BRANCH  20  21
ATOM     21  O   UNL     1      21.236   2.338  18.891  1.00  0.00    -0.488 OA
BRANCH  21  22
ATOM     22  C   UNL     1      20.618   2.636  20.074  1.00  0.00     0.132 A 
ATOM     23  C   UNL     1      19.290   2.315  20.233  1.00  0.00     0.081 A 
ATOM     24  C   UNL     1      21.262   3.246  21.122  1.00  0.00     0.047 A 
ATOM     25  C   UNL     1      18.635   2.605  21.427  1.00  0.00     0.018 A 
ATOM     26  C   UNL     1      20.631   3.545  22.317  1.00  0.00     0.004 A 
ATOM     27  C   UNL     1      19.294   3.213  22.459  1.00  0.00     0.001 A 
BRANCH  23  28
ATOM     28  C   UNL     1      18.515   1.672  19.200  1.00  0.00     0.252 C 
ATOM     29  N   UNL     1      17.342   2.326  18.670  1.00  0.00    -0.365 N 
ATOM     30  O   UNL     1      18.804   0.562  18.735  1.00  0.00    -0.269 OA
ATOM     31  H   UNL     1      17.305   2.639  17.682  1.00  0.00     0.159 HD
ATOM     32  H   UNL     1      16.558   2.456  19.323  1.00  0.00     0.159 HD
ENDBRANCH  23  28
ENDBRANCH  21  22
ENDBRANCH  20  21
ENDBRANCH  18  20
ENDBRANCH  12  14
ENDBRANCH   9  10
ENDBRANCH   8   9
BRANCH   8  33
ATOM     33  N   UNL     1      17.540  -3.594  15.086  1.00  0.00    -0.337 N 
ATOM     34  C   UNL     1      18.062  -4.899  14.791  1.00  0.00     0.270 C 
ATOM     35  H   UNL     1      16.520  -3.452  14.970  1.00  0.00     0.164 HD
ATOM     36  O   UNL     1      19.289  -5.093  14.908  1.00  0.00    -0.268 OA
BRANCH  34  37
ATOM     37  C   UNL     1      17.168  -5.960  14.367  1.00  0.00     0.123 A 
ATOM     38  C   UNL     1      17.425  -6.918  13.405  1.00  0.00     0.058 A 
ATOM     39  N   UNL     1      15.922  -6.272  14.827  1.00  0.00    -0.273 N 
ATOM     40  C   UNL     1      16.349  -7.755  13.322  1.00  0.00     0.060 A 
ATOM     41  N   UNL     1      15.433  -7.328  14.217  1.00  0.00    -0.180 NA
ATOM     42  H   UNL     1      15.452  -5.717  15.572  1.00  0.00     0.190 HD
ATOM     43  C   UNL     1      16.182  -8.919  12.426  1.00  0.00     0.069 C 
ENDBRANCH  34  37
ENDBRANCH   8  33
ENDBRANCH   5   8
ENDBRANCH   3   4
ENDBRANCH   2   3
ENDBRANCH   1   2
BRANCH   1  44
ATOM     44  C   UNL     1      21.216   2.217  13.945  1.00  0.00     0.000 C 
BRANCH  44  45
ATOM     45  C   UNL     1      22.457   1.547  14.283  1.00  0.00     0.000 C 
BRANCH  45  46
ATOM     46  C   UNL     1      23.740   2.091  14.626  1.00  0.00     0.000 C 
BRANCH  46  47
ATOM     47  C   UNL     1      24.063   3.282  15.396  1.00  0.00     0.000 C 
BRANCH  47  48
ATOM     48  C   UNL     1      25.487   3.522  15.805  1.00  0.00     0.000 C 
BRANCH  48  49
ATOM     49  C   UNL     1      25.533   4.033  17.242  1.00  0.00     0.000 C 
BRANCH  49  50
ATOM     50  C   UNL     1      25.147   5.569  17.170  1.00  0.00     0.001 C 
BRANCH  50  51
ATOM     51  C   UNL     1      26.262   6.378  17.396  1.00  0.00     0.009 C 
BRANCH  51  52
ATOM     52  C   UNL     1      26.739   7.782  17.107  1.00  0.00    -0.012 C 
BRANCH  52  53
ATOM     53  C   UNL     1      26.041   8.671  18.144  1.00  0.00    -0.018 C 
ATOM     54  C   UNL     1      26.672  10.056  18.265  1.00  0.00     0.033 C 
ATOM     55  C   UNL     1      24.561   8.892  17.855  1.00  0.00     0.033 C 
ATOM     56  C   UNL     1      26.043   8.289  19.537  1.00  0.00     0.033 C 
ATOM     57  C   UNL     1      25.857  11.061  18.969  1.00  0.00     0.101 C 
ATOM     58  C   UNL     1      23.850   9.789  18.865  1.00  0.00     0.101 C 
ATOM     59  C   UNL     1      25.363   9.304  20.488  1.00  0.00     0.101 C 
ATOM     60  C   UNL     1      24.419  11.175  18.658  1.00  0.00     0.051 C 
ATOM     61  C   UNL     1      25.896  10.665  20.466  1.00  0.00     0.051 C 
ATOM     62  C   UNL     1      23.884   9.314  20.260  1.00  0.00     0.051 C 
BRANCH  57  63
ATOM     63  S   UNL     1      26.695  12.626  18.896  1.00  0.00     0.270 S 
ATOM     64  O   UNL     1      27.474  12.890  20.142  1.00  0.00    -0.199 OA
ATOM     65  O   UNL     1      25.641  13.718  18.795  1.00  0.00    -0.199 OA
BRANCH  63  66
ATOM     66  O   UNL     1      27.612  12.700  17.513  1.00  0.00    -0.285 OA
ATOM     67  H   UNL     1      27.161  13.190  16.808  1.00  0.00     0.234 HD
ENDBRANCH  63  66
ENDBRANCH  57  63
BRANCH  58  68
ATOM     68  S   UNL     1      22.121   9.868  18.424  1.00  0.00     0.270 S 
ATOM     69  O   UNL     1      21.727   8.625  17.658  1.00  0.00    -0.199 OA
ATOM     70  O   UNL     1      21.340   9.837  19.714  1.00  0.00    -0.199 OA
BRANCH  68  71
ATOM     71  O   UNL     1      21.743  11.255  17.608  1.00  0.00    -0.285 OA
ATOM     72  H   UNL     1      21.595  11.977  18.238  1.00  0.00     0.234 HD
ENDBRANCH  68  71
ENDBRANCH  58  68
BRANCH  59  73
ATOM     73  S   UNL     1      25.600   8.656  22.148  1.00  0.00     0.270 S 
ATOM     74  O   UNL     1      25.655   7.138  22.065  1.00  0.00    -0.199 OA
ATOM     75  O   UNL     1      26.929   9.104  22.633  1.00  0.00    -0.199 OA
BRANCH  73  76
ATOM     76  O   UNL     1      24.401   9.158  23.173  1.00  0.00    -0.285 OA
ATOM     77  H   UNL     1      23.633   8.520  23.221  1.00  0.00     0.234 HD
ENDBRANCH  73  76
ENDBRANCH  59  73
ENDBRANCH  52  53
BRANCH  52  78
ATOM     78  C   UNL     1      26.270   8.152  15.696  1.00  0.00    -0.018 C 
ATOM     79  C   UNL     1      27.000   9.187  14.961  1.00  0.00     0.033 C 
ATOM     80  C   UNL     1      24.810   8.372  15.535  1.00  0.00     0.033 C 
ATOM     81  C   UNL     1      26.341   6.937  14.749  1.00  0.00     0.033 C 
ATOM     82  C   UNL     1      26.586   9.391  13.492  1.00  0.00     0.101 C 
ATOM     83  C   UNL     1      24.383   8.891  14.191  1.00  0.00     0.101 C 
ATOM     84  C   UNL     1      25.796   7.251  13.358  1.00  0.00     0.101 C 
ATOM     85  C   UNL     1      25.158   9.935  13.540  1.00  0.00     0.051 C 
ATOM     86  C   UNL     1      26.759   8.204  12.658  1.00  0.00     0.051 C 
ATOM     87  C   UNL     1      24.407   7.674  13.243  1.00  0.00     0.051 C 
BRANCH  82  88
ATOM     88  S   UNL     1      27.604  10.728  12.862  1.00  0.00     0.270 S 
ATOM     89  O   UNL     1      27.565  11.900  13.793  1.00  0.00    -0.199 OA
ATOM     90  O   UNL     1      27.154  11.105  11.477  1.00  0.00    -0.199 OA
BRANCH  88  91
ATOM     91  O   UNL     1      29.191  10.178  12.714  1.00  0.00    -0.285 OA
ATOM     92  H   UNL     1      29.477  10.080  11.779  1.00  0.00     0.234 HD
ENDBRANCH  88  91
ENDBRANCH  82  88
BRANCH  83  93
ATOM     93  S   UNL     1      22.663   9.338  14.254  1.00  0.00     0.270 S 
ATOM     94  O   UNL     1      22.220   9.530  12.810  1.00  0.00    -0.199 OA
ATOM     95  O   UNL     1      22.563  10.692  14.900  1.00  0.00    -0.199 OA
BRANCH  93  96
ATOM     96  O   UNL     1      21.715   8.198  14.990  1.00  0.00    -0.285 OA
ATOM     97  H   UNL     1      20.856   8.575  15.247  1.00  0.00     0.234 HD
ENDBRANCH  93  96
ENDBRANCH  83  93
BRANCH  84  98
ATOM     98  S   UNL     1      25.943   5.716  12.420  1.00  0.00     0.270 S 
ATOM     99  O   UNL     1      27.038   4.853  12.920  1.00  0.00    -0.199 OA
ATOM    100  O   UNL     1      26.164   6.003  10.972  1.00  0.00    -0.199 OA
BRANCH  98 101
ATOM    101  O   UNL     1      24.484   4.861  12.534  1.00  0.00    -0.285 OA
ATOM    102  H   UNL     1      23.874   5.265  13.188  1.00  0.00     0.234 HD
ENDBRANCH  98 101
ENDBRANCH  84  98
ENDBRANCH  52  78
BRANCH  52 103
ATOM    103  C   UNL     1      28.231   7.656  17.225  1.00  0.00    -0.018 C 
ATOM    104  C   UNL     1      29.050   8.633  16.486  1.00  0.00     0.033 C 
ATOM    105  C   UNL     1      28.709   7.811  18.673  1.00  0.00     0.033 C 
ATOM    106  C   UNL     1      28.785   6.288  17.041  1.00  0.00     0.033 C 
ATOM    107  C   UNL     1      30.568   8.569  16.709  1.00  0.00     0.101 C 
ATOM    108  C   UNL     1      30.237   7.776  18.809  1.00  0.00     0.101 C 
ATOM    109  C   UNL     1      30.301   6.244  17.070  1.00  0.00     0.101 C 
ATOM    110  C   UNL     1      30.917   8.898  18.096  1.00  0.00     0.051 C 
ATOM    111  C   UNL     1      31.015   7.214  16.235  1.00  0.00     0.051 C 
ATOM    112  C   UNL     1      30.815   6.420  18.494  1.00  0.00     0.051 C 
BRANCH 107 113
ATOM    113  S   UNL     1      31.322   9.773  15.627  1.00  0.00     0.270 S 
ATOM    114  O   UNL     1      31.663   9.183  14.303  1.00  0.00    -0.199 OA
ATOM    115  O   UNL     1      32.512  10.380  16.302  1.00  0.00    -0.199 OA
BRANCH 113 116
ATOM    116  O   UNL     1      30.183  10.997  15.402  1.00  0.00    -0.285 OA
ATOM    117  H   UNL     1      30.595  11.869  15.274  1.00  0.00     0.234 HD
ENDBRANCH 113 116
ENDBRANCH 107 113
BRANCH 108 118
ATOM    118  S   UNL     1      30.604   8.038  20.555  1.00  0.00     0.270 S 
ATOM    119  O   UNL     1      31.603   9.119  20.716  1.00  0.00    -0.199 OA
ATOM    120  O   UNL     1      31.193   6.738  21.065  1.00  0.00    -0.199 OA
BRANCH 118 121
ATOM    121  O   UNL     1      29.174   8.308  21.364  1.00  0.00    -0.285 OA
ATOM    122  H   UNL     1      29.021   9.280  21.419  1.00  0.00     0.234 HD
ENDBRANCH 118 121
ENDBRANCH 108 118
BRANCH 109 123
ATOM    123  S   UNL     1      30.839   4.600  16.601  1.00  0.00     0.270 S 
ATOM    124  O   UNL     1      31.864   4.675  15.506  1.00  0.00    -0.199 OA
ATOM    125  O   UNL     1      29.700   3.792  16.092  1.00  0.00    -0.199 OA
BRANCH 123 126
ATOM    126  O   UNL     1      31.527   3.784  17.887  1.00  0.00    -0.285 OA
ATOM    127  H   UNL     1      31.065   4.084  18.706  1.00  0.00     0.234 HD
ENDBRANCH 123 126
ENDBRANCH 109 123
ENDBRANCH  52 103
ENDBRANCH  51  52
ENDBRANCH  50  51
ENDBRANCH  49  50
ENDBRANCH  48  49
ENDBRANCH  47  48
ENDBRANCH  46  47
ENDBRANCH  45  46
ENDBRANCH  44  45
ENDBRANCH   1  44
TORSDOF 43
ENDMDL
MODEL 6
REMARK VINA RESULT:    -9.708      0.864      3.216
REMARK INTER + INTRA:         -41.734
REMARK INTER:                 -32.000
REMARK INTRA:                  -9.734
REMARK UNBOUND:               -10.175
REMARK SMILES Cc1cc(C(=O)N[C@H](CNC(=O)c2cccc(COc3ccccc3C(N)=O)c2)C(=O)NCCCCCCCCCCCC([C@]23C[C@]4(S(=O)(=O)O)C[C@](S(=O)(=O)O)(C2)C[C@](S(=O)(=O)O)(C3)C4)([C@]23C[C@]4(S(=O)(=O)O)C[C@](S(=O)(=O)O)(C2)C[C@](S(=O)(=O)O)(C3)C4)[C@]23C[C@]4(S(=O)(=O)O)C[C@](S(=O)(=O)O)(C2)C[C@](S(=O)(=O)O)(C3)C4)[nH]n1
REMARK SMILES IDX 35 1 34 2 33 3 32 4 30 5 31 6 8 8 9 9 10 10 12 11 11 12
REMARK SMILES IDX 13 14 14 15 29 16 15 17 17 18 16 19 18 20 19 21 20 22 25 23
REMARK SMILES IDX 21 24 24 25 22 26 23 27 26 28 27 29 28 30 7 33 5 34 6 36
REMARK SMILES IDX 4 37 3 38 111 39 2 40 112 41 1 43 36 44 37 45 38 46 39 47
REMARK SMILES IDX 40 48 41 49 42 50 43 51 44 52 67 53 80 54 87 55 68 56 75 57
REMARK SMILES IDX 82 58 69 59 81 60 74 61 88 62 76 63 77 64 78 65 79 66 83 68
REMARK SMILES IDX 84 69 85 70 86 71 70 73 71 74 72 75 73 76 45 78 46 79 58 80
REMARK SMILES IDX 65 81 47 82 53 83 60 84 52 85 66 86 59 87 48 88 49 89 50 90
REMARK SMILES IDX 51 91 54 93 55 94 56 95 57 96 61 98 62 99 63 100 64 101
REMARK SMILES IDX 89 103 102 104 109 105 90 106 97 107 104 108 91 109 103 110
REMARK SMILES IDX 96 111 110 112 98 113 99 114 100 115 101 116 105 118 106 119
REMARK SMILES IDX 107 120 108 121 92 123 93 124 94 125 95 126
REMARK H PARENT 32 7 10 13 27 31 27 32 7 35 111 42 79 67 86 72 73 77 51 92
REMARK H PARENT 57 97 64 102 101 117 108 122 95 127
REMARK Flexibility Score: inf
ROOT
ATOM      1  C   UNL     1      20.404   1.538  14.603  1.00  0.00     0.002 C 
ENDROOT
BRANCH   1   2
ATOM      2  C   UNL     1      19.290   1.689  13.642  1.00  0.00     0.021 C 
BRANCH   2   3
ATOM      3  C   UNL     1      18.598   0.448  13.226  1.00  0.00     0.116 C 
BRANCH   3   4
ATOM      4  N   UNL     1      18.770  -0.728  13.964  1.00  0.00    -0.354 N 
ATOM      5  C   UNL     1      18.087  -1.195  15.082  1.00  0.00     0.244 C 
ATOM      6  O   UNL     1      17.172  -0.634  15.724  1.00  0.00    -0.273 OA
ATOM      7  H   UNL     1      19.567  -1.376  13.594  1.00  0.00     0.163 HD
BRANCH   5   8
ATOM      8  C   UNL     1      18.498  -2.583  15.587  1.00  0.00     0.191 C 
BRANCH   8   9
ATOM      9  C   UNL     1      18.750  -2.588  17.044  1.00  0.00     0.151 C 
BRANCH   9  10
ATOM     10  N   UNL     1      19.859  -1.650  17.336  1.00  0.00    -0.349 N 
ATOM     11  O   UNL     1      21.396  -3.089  16.294  1.00  0.00    -0.269 OA
ATOM     12  C   UNL     1      21.143  -2.034  16.906  1.00  0.00     0.251 C 
ATOM     13  H   UNL     1      19.649  -0.787  17.828  1.00  0.00     0.163 HD
BRANCH  12  14
ATOM     14  C   UNL     1      22.251  -1.096  17.218  1.00  0.00     0.040 A 
ATOM     15  C   UNL     1      23.538  -1.475  16.928  1.00  0.00     0.014 A 
ATOM     16  C   UNL     1      21.920   0.112  17.774  1.00  0.00     0.021 A 
ATOM     17  C   UNL     1      24.572  -0.584  17.215  1.00  0.00     0.001 A 
ATOM     18  C   UNL     1      22.933   0.982  18.053  1.00  0.00    -0.010 A 
ATOM     19  C   UNL     1      24.241   0.627  17.772  1.00  0.00     0.007 A 
BRANCH  18  20
ATOM     20  C   UNL     1      22.587   2.292  18.648  1.00  0.00     0.265 C 
BRANCH  20  21
ATOM     21  O   UNL     1      21.204   2.382  18.875  1.00  0.00    -0.488 OA
BRANCH  21  22
ATOM     22  C   UNL     1      20.598   2.660  20.068  1.00  0.00     0.132 A 
ATOM     23  C   UNL     1      19.267   2.347  20.231  1.00  0.00     0.081 A 
ATOM     24  C   UNL     1      21.253   3.245  21.124  1.00  0.00     0.047 A 
ATOM     25  C   UNL     1      18.625   2.619  21.436  1.00  0.00     0.018 A 
ATOM     26  C   UNL     1      20.634   3.525  22.329  1.00  0.00     0.004 A 
ATOM     27  C   UNL     1      19.296   3.200  22.475  1.00  0.00     0.001 A 
BRANCH  23  28
ATOM     28  C   UNL     1      18.480   1.732  19.192  1.00  0.00     0.252 C 
ATOM     29  N   UNL     1      17.302   2.400  18.691  1.00  0.00    -0.365 N 
ATOM     30  O   UNL     1      18.762   0.633  18.695  1.00  0.00    -0.269 OA
ATOM     31  H   UNL     1      17.255   2.738  17.713  1.00  0.00     0.159 HD
ATOM     32  H   UNL     1      16.526   2.515  19.357  1.00  0.00     0.159 HD
ENDBRANCH  23  28
ENDBRANCH  21  22
ENDBRANCH  20  21
ENDBRANCH  18  20
ENDBRANCH  12  14
ENDBRANCH   9  10
ENDBRANCH   8   9
BRANCH   8  33
ATOM     33  N   UNL     1      17.595  -3.597  15.122  1.00  0.00    -0.337 N 
ATOM     34  C   UNL     1      18.086  -4.920  14.854  1.00  0.00     0.270 C 
ATOM     35  H   UNL     1      16.585  -3.424  14.972  1.00  0.00     0.164 HD
ATOM     36  O   UNL     1      19.302  -5.151  15.012  1.00  0.00    -0.268 OA
BRANCH  34  37
ATOM     37  C   UNL     1      17.173  -5.956  14.409  1.00  0.00     0.123 A 
ATOM     38  C   UNL     1      17.411  -6.893  13.422  1.00  0.00     0.058 A 
ATOM     39  N   UNL     1      15.925  -6.261  14.868  1.00  0.00    -0.273 N 
ATOM     40  C   UNL     1      16.322  -7.712  13.324  1.00  0.00     0.060 A 
ATOM     41  N   UNL     1      15.417  -7.293  14.235  1.00  0.00    -0.180 NA
ATOM     42  H   UNL     1      15.468  -5.717  15.629  1.00  0.00     0.190 HD
ATOM     43  C   UNL     1      16.132  -8.851  12.401  1.00  0.00     0.069 C 
ENDBRANCH  34  37
ENDBRANCH   8  33
ENDBRANCH   5   8
ENDBRANCH   3   4
ENDBRANCH   2   3
ENDBRANCH   1   2
BRANCH   1  44
ATOM     44  C   UNL     1      21.624   0.960  13.883  1.00  0.00     0.000 C 
BRANCH  44  45
ATOM     45  C   UNL     1      22.929   1.452  14.283  1.00  0.00     0.000 C 
BRANCH  45  46
ATOM     46  C   UNL     1      23.315   2.729  14.813  1.00  0.00     0.000 C 
BRANCH  46  47
ATOM     47  C   UNL     1      24.598   3.161  15.342  1.00  0.00     0.000 C 
BRANCH  47  48
ATOM     48  C   UNL     1      24.731   4.552  15.889  1.00  0.00     0.000 C 
BRANCH  48  49
ATOM     49  C   UNL     1      25.526   4.522  17.190  1.00  0.00     0.000 C 
BRANCH  49  50
ATOM     50  C   UNL     1      25.508   6.006  17.746  1.00  0.00     0.001 C 
BRANCH  50  51
ATOM     51  C   UNL     1      26.705   6.665  17.459  1.00  0.00     0.009 C 
BRANCH  51  52
ATOM     52  C   UNL     1      27.184   7.963  16.853  1.00  0.00    -0.012 C 
BRANCH  52  53
ATOM     53  C   UNL     1      26.748   9.057  17.835  1.00  0.00    -0.018 C 
ATOM     54  C   UNL     1      25.252   9.028  18.137  1.00  0.00     0.033 C 
ATOM     55  C   UNL     1      27.464   8.985  19.179  1.00  0.00     0.033 C 
ATOM     56  C   UNL     1      26.888  10.448  17.471  1.00  0.00     0.033 C 
ATOM     57  C   UNL     1      24.831   9.807  19.315  1.00  0.00     0.101 C 
ATOM     58  C   UNL     1      27.033  10.054  20.179  1.00  0.00     0.101 C 
ATOM     59  C   UNL     1      26.351  11.450  18.522  1.00  0.00     0.101 C 
ATOM     60  C   UNL     1      25.611   9.711  20.563  1.00  0.00     0.051 C 
ATOM     61  C   UNL     1      24.948  11.295  18.902  1.00  0.00     0.051 C 
ATOM     62  C   UNL     1      27.229  11.446  19.734  1.00  0.00     0.051 C 
BRANCH  57  63
ATOM     63  S   UNL     1      23.093   9.548  19.577  1.00  0.00     0.270 S 
ATOM     64  O   UNL     1      22.716   8.118  19.376  1.00  0.00    -0.199 OA
ATOM     65  O   UNL     1      22.336  10.354  18.533  1.00  0.00    -0.199 OA
BRANCH  63  66
ATOM     66  O   UNL     1      22.662  10.144  21.066  1.00  0.00    -0.285 OA
ATOM     67  H   UNL     1      21.758  10.497  21.065  1.00  0.00     0.234 HD
ENDBRANCH  63  66
ENDBRANCH  57  63
BRANCH  58  68
ATOM     68  S   UNL     1      28.025   9.875  21.653  1.00  0.00     0.270 S 
ATOM     69  O   UNL     1      28.816  11.141  21.899  1.00  0.00    -0.199 OA
ATOM     70  O   UNL     1      27.068   9.742  22.811  1.00  0.00    -0.199 OA
BRANCH  68  71
ATOM     71  O   UNL     1      28.990   8.532  21.603  1.00  0.00    -0.285 OA
ATOM     72  H   UNL     1      29.347   8.419  20.710  1.00  0.00     0.234 HD
ENDBRANCH  68  71
ENDBRANCH  58  68
BRANCH  59  73
ATOM     73  S   UNL     1      26.537  13.080  17.786  1.00  0.00     0.270 S 
ATOM     74  O   UNL     1      25.150  13.669  17.578  1.00  0.00    -0.199 OA
ATOM     75  O   UNL     1      27.228  13.953  18.766  1.00  0.00    -0.199 OA
BRANCH  73  76
ATOM     76  O   UNL     1      27.380  13.011  16.363  1.00  0.00    -0.285 OA
ATOM     77  H   UNL     1      28.323  13.332  16.449  1.00  0.00     0.234 HD
ENDBRANCH  73  76
ENDBRANCH  59  73
ENDBRANCH  52  53
BRANCH  52  78
ATOM     78  C   UNL     1      26.466   8.145  15.511  1.00  0.00    -0.018 C 
ATOM     79  C   UNL     1      26.462   7.034  14.558  1.00  0.00     0.033 C 
ATOM     80  C   UNL     1      26.752   9.410  14.789  1.00  0.00     0.033 C 
ATOM     81  C   UNL     1      24.964   8.429  15.717  1.00  0.00     0.033 C 
ATOM     82  C   UNL     1      25.585   7.218  13.307  1.00  0.00     0.101 C 
ATOM     83  C   UNL     1      26.173   9.507  13.406  1.00  0.00     0.101 C 
ATOM     84  C   UNL     1      24.238   8.705  14.403  1.00  0.00     0.101 C 
ATOM     85  C   UNL     1      26.230   8.357  12.518  1.00  0.00     0.051 C 
ATOM     86  C   UNL     1      24.166   7.408  13.602  1.00  0.00     0.051 C 
ATOM     87  C   UNL     1      24.678   9.836  13.597  1.00  0.00     0.051 C 
BRANCH  82  88
ATOM     88  S   UNL     1      25.803   5.740  12.313  1.00  0.00     0.270 S 
ATOM     89  O   UNL     1      24.553   4.916  12.319  1.00  0.00    -0.199 OA
ATOM     90  O   UNL     1      26.986   4.956  12.815  1.00  0.00    -0.199 OA
BRANCH  88  91
ATOM     91  O   UNL     1      26.170   6.199  10.733  1.00  0.00    -0.285 OA
ATOM     92  H   UNL     1      25.605   6.934  10.407  1.00  0.00     0.234 HD
ENDBRANCH  88  91
ENDBRANCH  82  88
BRANCH  83  93
ATOM     93  S   UNL     1      26.820  10.953  12.598  1.00  0.00     0.270 S 
ATOM     94  O   UNL     1      28.319  10.728  12.459  1.00  0.00    -0.199 OA
ATOM     95  O   UNL     1      26.660  12.115  13.538  1.00  0.00    -0.199 OA
BRANCH  93  96
ATOM     96  O   UNL     1      26.149  11.227  11.109  1.00  0.00    -0.285 OA
ATOM     97  H   UNL     1      26.100  10.402  10.594  1.00  0.00     0.234 HD
ENDBRANCH  93  96
ENDBRANCH  83  93
BRANCH  84  98
ATOM     98  S   UNL     1      22.522   9.034  14.854  1.00  0.00     0.270 S 
ATOM     99  O   UNL     1      21.565   8.487  13.865  1.00  0.00    -0.199 OA
ATOM    100  O   UNL     1      22.289  10.500  15.004  1.00  0.00    -0.199 OA
BRANCH  98 101
ATOM    101  O   UNL     1      22.205   8.329  16.361  1.00  0.00    -0.285 OA
ATOM    102  H   UNL     1      22.757   7.533  16.516  1.00  0.00     0.234 HD
ENDBRANCH  98 101
ENDBRANCH  84  98
ENDBRANCH  52  78
BRANCH  52 103
ATOM    103  C   UNL     1      28.662   7.738  16.710  1.00  0.00    -0.018 C 
ATOM    104  C   UNL     1      29.340   8.401  15.583  1.00  0.00     0.033 C 
ATOM    105  C   UNL     1      29.440   8.231  17.936  1.00  0.00     0.033 C 
ATOM    106  C   UNL     1      29.118   6.326  16.816  1.00  0.00     0.033 C 
ATOM    107  C   UNL     1      30.868   8.260  15.518  1.00  0.00     0.101 C 
ATOM    108  C   UNL     1      30.960   8.093  17.779  1.00  0.00     0.101 C 
ATOM    109  C   UNL     1      30.603   6.152  16.564  1.00  0.00     0.101 C 
ATOM    110  C   UNL     1      31.512   8.916  16.662  1.00  0.00     0.051 C 
ATOM    111  C   UNL     1      31.158   6.793  15.367  1.00  0.00     0.051 C 
ATOM    112  C   UNL     1      31.412   6.655  17.753  1.00  0.00     0.051 C 
BRANCH 107 113
ATOM    113  S   UNL     1      31.418   9.055  14.016  1.00  0.00     0.270 S 
ATOM    114  O   UNL     1      30.859   8.389  12.807  1.00  0.00    -0.199 OA
ATOM    115  O   UNL     1      32.913   9.111  13.995  1.00  0.00    -0.199 OA
BRANCH 113 116
ATOM    116  O   UNL     1      30.849  10.642  14.077  1.00  0.00    -0.285 OA
ATOM    117  H   UNL     1      30.608  10.917  14.979  1.00  0.00     0.234 HD
ENDBRANCH 113 116
ENDBRANCH 107 113
BRANCH 108 118
ATOM    118  S   UNL     1      31.695   8.780  19.276  1.00  0.00     0.270 S 
ATOM    119  O   UNL     1      33.136   9.051  19.065  1.00  0.00    -0.199 OA
ATOM    120  O   UNL     1      31.541   7.721  20.349  1.00  0.00    -0.199 OA
BRANCH 118 121
ATOM    121  O   UNL     1      30.813  10.114  19.738  1.00  0.00    -0.285 OA
ATOM    122  H   UNL     1      31.315  10.925  19.489  1.00  0.00     0.234 HD
ENDBRANCH 118 121
ENDBRANCH 108 118
BRANCH 109 123
ATOM    123  S   UNL     1      30.973   4.400  16.481  1.00  0.00     0.270 S 
ATOM    124  O   UNL     1      29.743   3.620  16.118  1.00  0.00    -0.199 OA
ATOM    125  O   UNL     1      31.454   3.895  17.793  1.00  0.00    -0.199 OA
BRANCH 123 126
ATOM    126  O   UNL     1      32.142   4.069  15.332  1.00  0.00    -0.285 OA
ATOM    127  H   UNL     1      31.824   3.299  14.805  1.00  0.00     0.234 HD
ENDBRANCH 123 126
ENDBRANCH 109 123
ENDBRANCH  52 103
ENDBRANCH  51  52
ENDBRANCH  50  51
ENDBRANCH  49  50
ENDBRANCH  48  49
ENDBRANCH  47  48
ENDBRANCH  46  47
ENDBRANCH  45  46
ENDBRANCH  44  45
ENDBRANCH   1  44
TORSDOF 43
ENDMDL
MODEL 7
REMARK VINA RESULT:    -9.690      0.974      3.726
REMARK INTER + INTRA:         -41.674
REMARK INTER:                 -31.819
REMARK INTRA:                  -9.854
REMARK UNBOUND:               -10.175
REMARK SMILES Cc1cc(C(=O)N[C@H](CNC(=O)c2cccc(COc3ccccc3C(N)=O)c2)C(=O)NCCCCCCCCCCCC([C@]23C[C@]4(S(=O)(=O)O)C[C@](S(=O)(=O)O)(C2)C[C@](S(=O)(=O)O)(C3)C4)([C@]23C[C@]4(S(=O)(=O)O)C[C@](S(=O)(=O)O)(C2)C[C@](S(=O)(=O)O)(C3)C4)[C@]23C[C@]4(S(=O)(=O)O)C[C@](S(=O)(=O)O)(C2)C[C@](S(=O)(=O)O)(C3)C4)[nH]n1
REMARK SMILES IDX 35 1 34 2 33 3 32 4 30 5 31 6 8 8 9 9 10 10 12 11 11 12
REMARK SMILES IDX 13 14 14 15 29 16 15 17 17 18 16 19 18 20 19 21 20 22 25 23
REMARK SMILES IDX 21 24 24 25 22 26 23 27 26 28 27 29 28 30 7 33 5 34 6 36
REMARK SMILES IDX 4 37 3 38 111 39 2 40 112 41 1 43 36 44 37 45 38 46 39 47
REMARK SMILES IDX 40 48 41 49 42 50 43 51 44 52 67 53 80 54 87 55 68 56 75 57
REMARK SMILES IDX 82 58 69 59 81 60 74 61 88 62 76 63 77 64 78 65 79 66 83 68
REMARK SMILES IDX 84 69 85 70 86 71 70 73 71 74 72 75 73 76 45 78 46 79 58 80
REMARK SMILES IDX 65 81 47 82 53 83 60 84 52 85 66 86 59 87 48 88 49 89 50 90
REMARK SMILES IDX 51 91 54 93 55 94 56 95 57 96 61 98 62 99 63 100 64 101
REMARK SMILES IDX 89 103 102 104 109 105 90 106 97 107 104 108 91 109 103 110
REMARK SMILES IDX 96 111 110 112 98 113 99 114 100 115 101 116 105 118 106 119
REMARK SMILES IDX 107 120 108 121 92 123 93 124 94 125 95 126
REMARK H PARENT 32 7 10 13 27 31 27 32 7 35 111 42 79 67 86 72 73 77 51 92
REMARK H PARENT 57 97 64 102 101 117 108 122 95 127
REMARK Flexibility Score: inf
ROOT
ATOM      1  C   UNL     1      20.315   1.541  14.806  1.00  0.00     0.002 C 
ENDROOT
BRANCH   1   2
ATOM      2  C   UNL     1      19.464   1.673  13.604  1.00  0.00     0.021 C 
BRANCH   2   3
ATOM      3  C   UNL     1      18.765   0.450  13.147  1.00  0.00     0.116 C 
BRANCH   3   4
ATOM      4  N   UNL     1      18.894  -0.739  13.872  1.00  0.00    -0.354 N 
ATOM      5  C   UNL     1      18.094  -1.270  14.878  1.00  0.00     0.244 C 
ATOM      6  O   UNL     1      17.077  -0.770  15.407  1.00  0.00    -0.273 OA
ATOM      7  H   UNL     1      19.762  -1.340  13.594  1.00  0.00     0.163 HD
BRANCH   5   8
ATOM      8  C   UNL     1      18.500  -2.654  15.397  1.00  0.00     0.191 C 
BRANCH   8   9
ATOM      9  C   UNL     1      18.726  -2.650  16.859  1.00  0.00     0.151 C 
BRANCH   9  10
ATOM     10  N   UNL     1      19.767  -1.645  17.175  1.00  0.00    -0.349 N 
ATOM     11  O   UNL     1      21.457  -3.142  16.524  1.00  0.00    -0.269 OA
ATOM     12  C   UNL     1      21.104  -2.032  16.964  1.00  0.00     0.251 C 
ATOM     13  H   UNL     1      19.477  -0.738  17.526  1.00  0.00     0.163 HD
BRANCH  12  14
ATOM     14  C   UNL     1      22.142  -1.024  17.300  1.00  0.00     0.040 A 
ATOM     15  C   UNL     1      23.451  -1.295  16.987  1.00  0.00     0.014 A 
ATOM     16  C   UNL     1      21.728   0.135  17.901  1.00  0.00     0.021 A 
ATOM     17  C   UNL     1      24.419  -0.340  17.296  1.00  0.00     0.001 A 
ATOM     18  C   UNL     1      22.676   1.069  18.202  1.00  0.00    -0.010 A 
ATOM     19  C   UNL     1      24.004   0.823  17.898  1.00  0.00     0.007 A 
BRANCH  18  20
ATOM     20  C   UNL     1      22.240   2.329  18.844  1.00  0.00     0.265 C 
BRANCH  20  21
ATOM     21  O   UNL     1      21.330   2.064  19.882  1.00  0.00    -0.488 OA
BRANCH  21  22
ATOM     22  C   UNL     1      19.978   2.263  19.842  1.00  0.00     0.132 A 
ATOM     23  C   UNL     1      19.337   2.725  20.968  1.00  0.00     0.081 A 
ATOM     24  C   UNL     1      19.219   2.022  18.724  1.00  0.00     0.047 A 
ATOM     25  C   UNL     1      17.961   2.938  20.955  1.00  0.00     0.018 A 
ATOM     26  C   UNL     1      17.850   2.226  18.688  1.00  0.00     0.004 A 
ATOM     27  C   UNL     1      17.223   2.693  19.831  1.00  0.00     0.001 A 
BRANCH  23  28
ATOM     28  C   UNL     1      20.033   3.011  22.198  1.00  0.00     0.252 C 
ATOM     29  N   UNL     1      20.969   2.052  22.735  1.00  0.00    -0.365 N 
ATOM     30  O   UNL     1      19.865   4.058  22.838  1.00  0.00    -0.269 OA
ATOM     31  H   UNL     1      21.980   2.272  22.800  1.00  0.00     0.159 HD
ATOM     32  H   UNL     1      20.574   1.155  23.044  1.00  0.00     0.159 HD
ENDBRANCH  23  28
ENDBRANCH  21  22
ENDBRANCH  20  21
ENDBRANCH  18  20
ENDBRANCH  12  14
ENDBRANCH   9  10
ENDBRANCH   8   9
BRANCH   8  33
ATOM     33  N   UNL     1      17.609  -3.673  14.922  1.00  0.00    -0.337 N 
ATOM     34  C   UNL     1      18.089  -5.016  14.751  1.00  0.00     0.270 C 
ATOM     35  H   UNL     1      16.615  -3.490  14.695  1.00  0.00     0.164 HD
ATOM     36  O   UNL     1      19.286  -5.261  15.003  1.00  0.00    -0.268 OA
BRANCH  34  37
ATOM     37  C   UNL     1      17.187  -6.057  14.296  1.00  0.00     0.123 A 
ATOM     38  C   UNL     1      17.444  -6.999  13.318  1.00  0.00     0.058 A 
ATOM     39  N   UNL     1      15.932  -6.363  14.735  1.00  0.00    -0.273 N 
ATOM     40  C   UNL     1      16.358  -7.820  13.205  1.00  0.00     0.060 A 
ATOM     41  N   UNL     1      15.437  -7.400  14.099  1.00  0.00    -0.180 NA
ATOM     42  H   UNL     1      15.461  -5.816  15.486  1.00  0.00     0.190 HD
ATOM     43  C   UNL     1      16.187  -8.964  12.285  1.00  0.00     0.069 C 
ENDBRANCH  34  37
ENDBRANCH   8  33
ENDBRANCH   5   8
ENDBRANCH   3   4
ENDBRANCH   2   3
ENDBRANCH   1   2
BRANCH   1  44
ATOM     44  C   UNL     1      21.767   1.316  14.381  1.00  0.00     0.000 C 
BRANCH  44  45
ATOM     45  C   UNL     1      22.607   2.488  14.230  1.00  0.00     0.000 C 
BRANCH  45  46
ATOM     46  C   UNL     1      23.823   2.850  14.902  1.00  0.00     0.000 C 
BRANCH  46  47
ATOM     47  C   UNL     1      24.035   3.802  15.980  1.00  0.00     0.000 C 
BRANCH  47  48
ATOM     48  C   UNL     1      25.435   4.071  16.450  1.00  0.00     0.000 C 
BRANCH  48  49
ATOM     49  C   UNL     1      25.431   4.354  17.949  1.00  0.00     0.000 C 
BRANCH  49  50
ATOM     50  C   UNL     1      25.297   5.926  18.096  1.00  0.00     0.001 C 
BRANCH  50  51
ATOM     51  C   UNL     1      26.192   6.588  17.253  1.00  0.00     0.009 C 
BRANCH  51  52
ATOM     52  C   UNL     1      26.680   7.989  16.970  1.00  0.00    -0.012 C 
BRANCH  52  53
ATOM     53  C   UNL     1      25.915   8.892  17.944  1.00  0.00    -0.018 C 
ATOM     54  C   UNL     1      24.439   9.045  17.584  1.00  0.00     0.033 C 
ATOM     55  C   UNL     1      25.961   8.405  19.387  1.00  0.00     0.033 C 
ATOM     56  C   UNL     1      26.273  10.286  18.064  1.00  0.00     0.033 C 
ATOM     57  C   UNL     1      23.584   9.600  18.648  1.00  0.00     0.101 C 
ATOM     58  C   UNL     1      25.191   9.279  20.372  1.00  0.00     0.101 C 
ATOM     59  C   UNL     1      25.382  11.103  19.032  1.00  0.00     0.101 C 
ATOM     60  C   UNL     1      23.729   9.099  20.028  1.00  0.00     0.051 C 
ATOM     61  C   UNL     1      23.949  11.102  18.744  1.00  0.00     0.051 C 
ATOM     62  C   UNL     1      25.635  10.683  20.446  1.00  0.00     0.051 C 
BRANCH  57  63
ATOM     63  S   UNL     1      21.897   9.581  18.091  1.00  0.00     0.270 S 
ATOM     64  O   UNL     1      21.465  10.924  17.604  1.00  0.00    -0.199 OA
ATOM     65  O   UNL     1      21.014   9.239  19.281  1.00  0.00    -0.199 OA
BRANCH  63  66
ATOM     66  O   UNL     1      21.698   8.374  16.968  1.00  0.00    -0.285 OA
ATOM     67  H   UNL     1      21.542   8.731  16.079  1.00  0.00     0.234 HD
ENDBRANCH  63  66
ENDBRANCH  57  63
BRANCH  58  68
ATOM     68  S   UNL     1      25.422   8.613  22.013  1.00  0.00     0.270 S 
ATOM     69  O   UNL     1      24.223   8.940  22.875  1.00  0.00    -0.199 OA
ATOM     70  O   UNL     1      25.449   7.112  21.875  1.00  0.00    -0.199 OA
BRANCH  68  71
ATOM     71  O   UNL     1      26.843   9.109  22.699  1.00  0.00    -0.285 OA
ATOM     72  H   UNL     1      27.236   8.380  23.202  1.00  0.00     0.234 HD
ENDBRANCH  68  71
ENDBRANCH  58  68
BRANCH  59  73
ATOM     73  S   UNL     1      25.957  12.802  18.913  1.00  0.00     0.270 S 
ATOM     74  O   UNL     1      26.380  13.260  20.301  1.00  0.00    -0.199 OA
ATOM     75  O   UNL     1      27.178  12.819  18.069  1.00  0.00    -0.199 OA
BRANCH  73  76
ATOM     76  O   UNL     1      24.793  13.794  18.282  1.00  0.00    -0.285 OA
ATOM     77  H   UNL     1      24.928  14.757  18.515  1.00  0.00     0.234 HD
ENDBRANCH  73  76
ENDBRANCH  59  73
ENDBRANCH  52  53
BRANCH  52  78
ATOM     78  C   UNL     1      26.300   8.332  15.525  1.00  0.00    -0.018 C 
ATOM     79  C   UNL     1      27.120   9.297  14.792  1.00  0.00     0.033 C 
ATOM     80  C   UNL     1      24.864   8.624  15.285  1.00  0.00     0.033 C 
ATOM     81  C   UNL     1      26.349   7.081  14.625  1.00  0.00     0.033 C 
ATOM     82  C   UNL     1      26.789   9.470  13.299  1.00  0.00     0.101 C 
ATOM     83  C   UNL     1      24.531   9.115  13.904  1.00  0.00     0.101 C 
ATOM     84  C   UNL     1      25.889   7.371  13.198  1.00  0.00     0.101 C 
ATOM     85  C   UNL     1      25.393  10.091  13.257  1.00  0.00     0.051 C 
ATOM     86  C   UNL     1      26.935   8.245  12.514  1.00  0.00     0.051 C 
ATOM     87  C   UNL     1      24.532   7.865  13.000  1.00  0.00     0.051 C 
BRANCH  82  88
ATOM     88  S   UNL     1      27.909  10.726  12.674  1.00  0.00     0.270 S 
ATOM     89  O   UNL     1      27.920  11.916  13.582  1.00  0.00    -0.199 OA
ATOM     90  O   UNL     1      27.522  11.104  11.270  1.00  0.00    -0.199 OA
BRANCH  88  91
ATOM     91  O   UNL     1      29.460  10.072  12.582  1.00  0.00    -0.285 OA
ATOM     92  H   UNL     1      29.970  10.404  11.810  1.00  0.00     0.234 HD
ENDBRANCH  88  91
ENDBRANCH  82  88
BRANCH  83  93
ATOM     93  S   UNL     1      22.837   9.656  13.866  1.00  0.00     0.270 S 
ATOM     94  O   UNL     1      21.988   8.415  14.106  1.00  0.00    -0.199 OA
ATOM     95  O   UNL     1      22.529  10.104  12.465  1.00  0.00    -0.199 OA
BRANCH  93  96
ATOM     96  O   UNL     1      22.491  10.806  15.005  1.00  0.00    -0.285 OA
ATOM     97  H   UNL     1      22.928  11.649  14.791  1.00  0.00     0.234 HD
ENDBRANCH  93  96
ENDBRANCH  83  93
BRANCH  84  98
ATOM     98  S   UNL     1      25.994   5.798  12.321  1.00  0.00     0.270 S 
ATOM     99  O   UNL     1      24.780   4.970  12.503  1.00  0.00    -0.199 OA
ATOM    100  O   UNL     1      27.189   5.024  12.770  1.00  0.00    -0.199 OA
BRANCH  98 101
ATOM    101  O   UNL     1      26.198   6.103  10.667  1.00  0.00    -0.285 OA
ATOM    102  H   UNL     1      26.613   5.344  10.204  1.00  0.00     0.234 HD
ENDBRANCH  98 101
ENDBRANCH  84  98
ENDBRANCH  52  78
BRANCH  52 103
ATOM    103  C   UNL     1      28.162   7.873  17.183  1.00  0.00    -0.018 C 
ATOM    104  C   UNL     1      28.651   7.939  18.572  1.00  0.00     0.033 C 
ATOM    105  C   UNL     1      28.715   6.538  16.672  1.00  0.00     0.033 C 
ATOM    106  C   UNL     1      29.014   8.720  16.306  1.00  0.00     0.033 C 
ATOM    107  C   UNL     1      30.153   7.700  18.787  1.00  0.00     0.101 C 
ATOM    108  C   UNL     1      30.211   6.357  16.959  1.00  0.00     0.101 C 
ATOM    109  C   UNL     1      30.492   8.636  16.638  1.00  0.00     0.101 C 
ATOM    110  C   UNL     1      30.532   6.332  18.417  1.00  0.00     0.051 C 
ATOM    111  C   UNL     1      30.871   8.793  18.045  1.00  0.00     0.051 C 
ATOM    112  C   UNL     1      31.072   7.308  16.166  1.00  0.00     0.051 C 
BRANCH 107 113
ATOM    113  S   UNL     1      30.492   7.940  20.524  1.00  0.00     0.270 S 
ATOM    114  O   UNL     1      31.673   8.823  20.735  1.00  0.00    -0.199 OA
ATOM    115  O   UNL     1      30.648   6.611  21.194  1.00  0.00    -0.199 OA
BRANCH 113 116
ATOM    116  O   UNL     1      29.129   8.687  21.181  1.00  0.00    -0.285 OA
ATOM    117  H   UNL     1      28.460   8.898  20.507  1.00  0.00     0.234 HD
ENDBRANCH 113 116
ENDBRANCH 107 113
BRANCH 108 118
ATOM    118  S   UNL     1      30.657   4.719  16.351  1.00  0.00     0.270 S 
ATOM    119  O   UNL     1      31.286   3.922  17.430  1.00  0.00    -0.199 OA
ATOM    120  O   UNL     1      31.667   4.937  15.242  1.00  0.00    -0.199 OA
BRANCH 118 121
ATOM    121  O   UNL     1      29.304   4.013  15.685  1.00  0.00    -0.285 OA
ATOM    122  H   UNL     1      29.553   3.128  15.328  1.00  0.00     0.234 HD
ENDBRANCH 118 121
ENDBRANCH 108 118
BRANCH 109 123
ATOM    123  S   UNL     1      31.369   9.872  15.682  1.00  0.00     0.270 S 
ATOM    124  O   UNL     1      31.885   9.279  14.403  1.00  0.00    -0.199 OA
ATOM    125  O   UNL     1      32.537  10.398  16.435  1.00  0.00    -0.199 OA
BRANCH 123 126
ATOM    126  O   UNL     1      30.381  11.160  15.283  1.00  0.00    -0.285 OA
ATOM    127  H   UNL     1      30.965  11.891  14.968  1.00  0.00     0.234 HD
ENDBRANCH 123 126
ENDBRANCH 109 123
ENDBRANCH  52 103
ENDBRANCH  51  52
ENDBRANCH  50  51
ENDBRANCH  49  50
ENDBRANCH  48  49
ENDBRANCH  47  48
ENDBRANCH  46  47
ENDBRANCH  45  46
ENDBRANCH  44  45
ENDBRANCH   1  44
TORSDOF 43
ENDMDL
MODEL 8
REMARK VINA RESULT:    -9.637      0.909      5.885
REMARK INTER + INTRA:         -41.502
REMARK INTER:                 -30.749
REMARK INTRA:                 -10.753
REMARK UNBOUND:               -10.175
REMARK SMILES Cc1cc(C(=O)N[C@H](CNC(=O)c2cccc(COc3ccccc3C(N)=O)c2)C(=O)NCCCCCCCCCCCC([C@]23C[C@]4(S(=O)(=O)O)C[C@](S(=O)(=O)O)(C2)C[C@](S(=O)(=O)O)(C3)C4)([C@]23C[C@]4(S(=O)(=O)O)C[C@](S(=O)(=O)O)(C2)C[C@](S(=O)(=O)O)(C3)C4)[C@]23C[C@]4(S(=O)(=O)O)C[C@](S(=O)(=O)O)(C2)C[C@](S(=O)(=O)O)(C3)C4)[nH]n1
REMARK SMILES IDX 35 1 34 2 33 3 32 4 30 5 31 6 8 8 9 9 10 10 12 11 11 12
REMARK SMILES IDX 13 14 14 15 29 16 15 17 17 18 16 19 18 20 19 21 20 22 25 23
REMARK SMILES IDX 21 24 24 25 22 26 23 27 26 28 27 29 28 30 7 33 5 34 6 36
REMARK SMILES IDX 4 37 3 38 111 39 2 40 112 41 1 43 36 44 37 45 38 46 39 47
REMARK SMILES IDX 40 48 41 49 42 50 43 51 44 52 67 53 80 54 87 55 68 56 75 57
REMARK SMILES IDX 82 58 69 59 81 60 74 61 88 62 76 63 77 64 78 65 79 66 83 68
REMARK SMILES IDX 84 69 85 70 86 71 70 73 71 74 72 75 73 76 45 78 46 79 58 80
REMARK SMILES IDX 65 81 47 82 53 83 60 84 52 85 66 86 59 87 48 88 49 89 50 90
REMARK SMILES IDX 51 91 54 93 55 94 56 95 57 96 61 98 62 99 63 100 64 101
REMARK SMILES IDX 89 103 102 104 109 105 90 106 97 107 104 108 91 109 103 110
REMARK SMILES IDX 96 111 110 112 98 113 99 114 100 115 101 116 105 118 106 119
REMARK SMILES IDX 107 120 108 121 92 123 93 124 94 125 95 126
REMARK H PARENT 32 7 10 13 27 31 27 32 7 35 111 42 79 67 86 72 73 77 51 92
REMARK H PARENT 57 97 64 102 101 117 108 122 95 127
REMARK Flexibility Score: inf
ROOT
ATOM      1  C   UNL     1      20.399   1.608  14.612  1.00  0.00     0.002 C 
ENDROOT
BRANCH   1   2
ATOM      2  C   UNL     1      19.288   1.784  13.653  1.00  0.00     0.021 C 
BRANCH   2   3
ATOM      3  C   UNL     1      18.471   0.585  13.356  1.00  0.00     0.116 C 
BRANCH   3   4
ATOM      4  N   UNL     1      18.718  -0.614  14.033  1.00  0.00    -0.354 N 
ATOM      5  C   UNL     1      18.166  -1.114  15.208  1.00  0.00     0.244 C 
ATOM      6  O   UNL     1      17.336  -0.570  15.968  1.00  0.00    -0.273 OA
ATOM      7  H   UNL     1      19.462  -1.253  13.552  1.00  0.00     0.163 HD
BRANCH   5   8
ATOM      8  C   UNL     1      18.623  -2.518  15.618  1.00  0.00     0.191 C 
BRANCH   8   9
ATOM      9  C   UNL     1      18.974  -2.587  17.053  1.00  0.00     0.151 C 
BRANCH   9  10
ATOM     10  N   UNL     1      20.044  -1.600  17.327  1.00  0.00    -0.349 N 
ATOM     11  O   UNL     1      21.665  -3.069  16.472  1.00  0.00    -0.269 OA
ATOM     12  C   UNL     1      21.357  -1.979  16.989  1.00  0.00     0.251 C 
ATOM     13  H   UNL     1      19.789  -0.708  17.742  1.00  0.00     0.163 HD
BRANCH  12  14
ATOM     14  C   UNL     1      22.425  -0.990  17.283  1.00  0.00     0.040 A 
ATOM     15  C   UNL     1      23.713  -1.278  16.905  1.00  0.00     0.014 A 
ATOM     16  C   UNL     1      22.058   0.170  17.913  1.00  0.00     0.021 A 
ATOM     17  C   UNL     1      24.709  -0.340  17.175  1.00  0.00     0.001 A 
ATOM     18  C   UNL     1      23.034   1.087  18.176  1.00  0.00    -0.010 A 
ATOM     19  C   UNL     1      24.341   0.824  17.806  1.00  0.00     0.007 A 
BRANCH  18  20
ATOM     20  C   UNL     1      22.648   2.346  18.850  1.00  0.00     0.265 C 
BRANCH  20  21
ATOM     21  O   UNL     1      21.251   2.491  18.865  1.00  0.00    -0.488 OA
BRANCH  21  22
ATOM     22  C   UNL     1      20.472   2.701  19.969  1.00  0.00     0.132 A 
ATOM     23  C   UNL     1      19.219   2.136  20.020  1.00  0.00     0.081 A 
ATOM     24  C   UNL     1      20.880   3.457  21.040  1.00  0.00     0.047 A 
ATOM     25  C   UNL     1      18.405   2.333  21.132  1.00  0.00     0.018 A 
ATOM     26  C   UNL     1      20.087   3.667  22.155  1.00  0.00     0.004 A 
ATOM     27  C   UNL     1      18.830   3.088  22.189  1.00  0.00     0.001 A 
BRANCH  23  28
ATOM     28  C   UNL     1      18.687   1.324  18.954  1.00  0.00     0.252 C 
ATOM     29  N   UNL     1      18.418   1.916  17.665  1.00  0.00    -0.365 N 
ATOM     30  O   UNL     1      18.438   0.118  19.087  1.00  0.00    -0.269 OA
ATOM     31  H   UNL     1      18.951   1.628  16.824  1.00  0.00     0.159 HD
ATOM     32  H   UNL     1      17.675   2.626  17.637  1.00  0.00     0.159 HD
ENDBRANCH  23  28
ENDBRANCH  21  22
ENDBRANCH  20  21
ENDBRANCH  18  20
ENDBRANCH  12  14
ENDBRANCH   9  10
ENDBRANCH   8   9
BRANCH   8  33
ATOM     33  N   UNL     1      17.700  -3.520  15.169  1.00  0.00    -0.337 N 
ATOM     34  C   UNL     1      18.168  -4.851  14.898  1.00  0.00     0.270 C 
ATOM     35  H   UNL     1      16.690  -3.333  15.032  1.00  0.00     0.164 HD
ATOM     36  O   UNL     1      19.382  -5.099  15.040  1.00  0.00    -0.268 OA
BRANCH  34  37
ATOM     37  C   UNL     1      17.235  -5.875  14.469  1.00  0.00     0.123 A 
ATOM     38  C   UNL     1      17.452  -6.829  13.493  1.00  0.00     0.058 A 
ATOM     39  N   UNL     1      15.983  -6.151  14.935  1.00  0.00    -0.273 N 
ATOM     40  C   UNL     1      16.347  -7.628  13.408  1.00  0.00     0.060 A 
ATOM     41  N   UNL     1      15.453  -7.182  14.316  1.00  0.00    -0.180 NA
ATOM     42  H   UNL     1      15.538  -5.589  15.691  1.00  0.00     0.190 HD
ATOM     43  C   UNL     1      16.133  -8.775  12.500  1.00  0.00     0.069 C 
ENDBRANCH  34  37
ENDBRANCH   8  33
ENDBRANCH   5   8
ENDBRANCH   3   4
ENDBRANCH   2   3
ENDBRANCH   1   2
BRANCH   1  44
ATOM     44  C   UNL     1      21.641   1.109  13.869  1.00  0.00     0.000 C 
BRANCH  44  45
ATOM     45  C   UNL     1      22.934   1.502  14.395  1.00  0.00     0.000 C 
BRANCH  45  46
ATOM     46  C   UNL     1      23.454   2.805  14.699  1.00  0.00     0.000 C 
BRANCH  46  47
ATOM     47  C   UNL     1      24.780   3.187  15.157  1.00  0.00     0.000 C 
BRANCH  47  48
ATOM     48  C   UNL     1      24.990   4.566  15.711  1.00  0.00     0.000 C 
BRANCH  48  49
ATOM     49  C   UNL     1      25.403   4.477  17.177  1.00  0.00     0.000 C 
BRANCH  49  50
ATOM     50  C   UNL     1      26.669   5.418  17.331  1.00  0.00     0.001 C 
BRANCH  50  51
ATOM     51  C   UNL     1      26.300   6.765  17.307  1.00  0.00     0.009 C 
BRANCH  51  52
ATOM     52  C   UNL     1      26.771   8.073  16.718  1.00  0.00    -0.012 C 
BRANCH  52  53
ATOM     53  C   UNL     1      26.038   8.204  15.378  1.00  0.00    -0.018 C 
ATOM     54  C   UNL     1      24.519   8.146  15.518  1.00  0.00     0.033 C 
ATOM     55  C   UNL     1      26.355   9.498  14.637  1.00  0.00     0.033 C 
ATOM     56  C   UNL     1      26.219   7.198  14.358  1.00  0.00     0.033 C 
ATOM     57  C   UNL     1      23.759   8.607  14.343  1.00  0.00     0.101 C 
ATOM     58  C   UNL     1      25.624   9.658  13.308  1.00  0.00     0.101 C 
ATOM     59  C   UNL     1      25.374   7.412  13.079  1.00  0.00     0.101 C 
ATOM     60  C   UNL     1      24.165   9.849  13.660  1.00  0.00     0.051 C 
ATOM     61  C   UNL     1      23.927   7.504  13.270  1.00  0.00     0.051 C 
ATOM     62  C   UNL     1      25.880   8.597  12.317  1.00  0.00     0.051 C 
BRANCH  57  63
ATOM     63  S   UNL     1      22.027   8.586  14.742  1.00  0.00     0.270 S 
ATOM     64  O   UNL     1      21.332   7.427  14.107  1.00  0.00    -0.199 OA
ATOM     65  O   UNL     1      21.397   9.845  14.168  1.00  0.00    -0.199 OA
BRANCH  63  66
ATOM     66  O   UNL     1      21.837   8.649  16.391  1.00  0.00    -0.285 OA
ATOM     67  H   UNL     1      22.267   7.900  16.832  1.00  0.00     0.234 HD
ENDBRANCH  63  66
ENDBRANCH  57  63
BRANCH  58  68
ATOM     68  S   UNL     1      26.175  11.175  12.543  1.00  0.00     0.270 S 
ATOM     69  O   UNL     1      26.928  10.865  11.268  1.00  0.00    -0.199 OA
ATOM     70  O   UNL     1      24.937  11.932  12.131  1.00  0.00    -0.199 OA
BRANCH  68  71
ATOM     71  O   UNL     1      27.054  12.118  13.578  1.00  0.00    -0.285 OA
ATOM     72  H   UNL     1      26.882  13.054  13.395  1.00  0.00     0.234 HD
ENDBRANCH  68  71
ENDBRANCH  58  68
BRANCH  59  73
ATOM     73  S   UNL     1      25.693   5.983  12.034  1.00  0.00     0.270 S 
ATOM     74  O   UNL     1      26.842   5.195  12.642  1.00  0.00    -0.199 OA
ATOM     75  O   UNL     1      24.500   5.102  12.081  1.00  0.00    -0.199 OA
BRANCH  73  76
ATOM     76  O   UNL     1      26.030   6.433  10.478  1.00  0.00    -0.285 OA
ATOM     77  H   UNL     1      26.744   5.876  10.053  1.00  0.00     0.234 HD
ENDBRANCH  73  76
ENDBRANCH  59  73
ENDBRANCH  52  53
BRANCH  52  78
ATOM     78  C   UNL     1      28.281   7.963  16.484  1.00  0.00    -0.018 C 
ATOM     79  C   UNL     1      28.860   8.610  15.305  1.00  0.00     0.033 C 
ATOM     80  C   UNL     1      28.862   6.605  16.634  1.00  0.00     0.033 C 
ATOM     81  C   UNL     1      29.072   8.592  17.649  1.00  0.00     0.033 C 
ATOM     82  C   UNL     1      30.397   8.606  15.218  1.00  0.00     0.101 C 
ATOM     83  C   UNL     1      30.309   6.478  16.246  1.00  0.00     0.101 C 
ATOM     84  C   UNL     1      30.581   8.418  17.489  1.00  0.00     0.101 C 
ATOM     85  C   UNL     1      30.794   7.141  15.046  1.00  0.00     0.051 C 
ATOM     86  C   UNL     1      31.054   9.290  16.330  1.00  0.00     0.051 C 
ATOM     87  C   UNL     1      31.114   7.063  17.424  1.00  0.00     0.051 C 
BRANCH  82  88
ATOM     88  S   UNL     1      30.818   9.419  13.674  1.00  0.00     0.270 S 
ATOM     89  O   UNL     1      31.349   8.425  12.688  1.00  0.00    -0.199 OA
ATOM     90  O   UNL     1      31.804  10.526  13.931  1.00  0.00    -0.199 OA
BRANCH  88  91
ATOM     91  O   UNL     1      29.432  10.148  13.050  1.00  0.00    -0.285 OA
ATOM     92  H   UNL     1      29.540  11.115  12.907  1.00  0.00     0.234 HD
ENDBRANCH  88  91
ENDBRANCH  82  88
BRANCH  83  93
ATOM     93  S   UNL     1      30.766   4.760  16.239  1.00  0.00     0.270 S 
ATOM     94  O   UNL     1      31.214   4.433  17.657  1.00  0.00    -0.199 OA
ATOM     95  O   UNL     1      31.988   4.613  15.376  1.00  0.00    -0.199 OA
BRANCH  93  96
ATOM     96  O   UNL     1      29.531   3.754  15.790  1.00  0.00    -0.285 OA
ATOM     97  H   UNL     1      29.574   2.913  16.279  1.00  0.00     0.234 HD
ENDBRANCH  93  96
ENDBRANCH  83  93
BRANCH  84  98
ATOM     98  S   UNL     1      31.318   9.189  18.944  1.00  0.00     0.270 S 
ATOM     99  O   UNL     1      30.518  10.333  19.441  1.00  0.00    -0.199 OA
ATOM    100  O   UNL     1      32.706   9.650  18.650  1.00  0.00    -0.199 OA
BRANCH  98 101
ATOM    101  O   UNL     1      31.435   8.034  20.178  1.00  0.00    -0.285 OA
ATOM    102  H   UNL     1      30.866   8.260  20.946  1.00  0.00     0.234 HD
ENDBRANCH  98 101
ENDBRANCH  84  98
ENDBRANCH  52  78
BRANCH  52 103
ATOM    103  C   UNL     1      26.405   9.068  17.784  1.00  0.00    -0.018 C 
ATOM    104  C   UNL     1      26.444  10.494  17.417  1.00  0.00     0.033 C 
ATOM    105  C   UNL     1      24.973   8.867  18.290  1.00  0.00     0.033 C 
ATOM    106  C   UNL     1      27.050   8.868  19.109  1.00  0.00     0.033 C 
ATOM    107  C   UNL     1      25.954  11.492  18.477  1.00  0.00     0.101 C 
ATOM    108  C   UNL     1      24.544   9.925  19.315  1.00  0.00     0.101 C 
ATOM    109  C   UNL     1      26.721   9.959  20.110  1.00  0.00     0.101 C 
ATOM    110  C   UNL     1      24.525  11.310  18.758  1.00  0.00     0.051 C 
ATOM    111  C   UNL     1      26.870  11.346  19.659  1.00  0.00     0.051 C 
ATOM    112  C   UNL     1      25.293   9.807  20.618  1.00  0.00     0.051 C 
BRANCH 107 113
ATOM    113  S   UNL     1      26.206  13.136  17.824  1.00  0.00     0.270 S 
ATOM    114  O   UNL     1      25.024  14.009  18.067  1.00  0.00    -0.199 OA
ATOM    115  O   UNL     1      26.563  13.051  16.373  1.00  0.00    -0.199 OA
BRANCH 113 116
ATOM    116  O   UNL     1      27.536  13.778  18.640  1.00  0.00    -0.285 OA
ATOM    117  H   UNL     1      27.382  14.691  18.940  1.00  0.00     0.234 HD
ENDBRANCH 113 116
ENDBRANCH 107 113
BRANCH 108 118
ATOM    118  S   UNL     1      22.828   9.566  19.738  1.00  0.00     0.270 S 
ATOM    119  O   UNL     1      22.599   9.773  21.186  1.00  0.00    -0.199 OA
ATOM    120  O   UNL     1      22.605   8.105  19.403  1.00  0.00    -0.199 OA
BRANCH 118 121
ATOM    121  O   UNL     1      21.837  10.476  18.756  1.00  0.00    -0.285 OA
ATOM    122  H   UNL     1      21.893  10.122  17.837  1.00  0.00     0.234 HD
ENDBRANCH 118 121
ENDBRANCH 108 118
BRANCH 109 123
ATOM    123  S   UNL     1      27.741   9.732  21.566  1.00  0.00     0.270 S 
ATOM    124  O   UNL     1      26.892   9.377  22.752  1.00  0.00    -0.199 OA
ATOM    125  O   UNL     1      28.478  10.979  21.900  1.00  0.00    -0.199 OA
BRANCH 123 126
ATOM    126  O   UNL     1      28.857   8.505  21.354  1.00  0.00    -0.285 OA
ATOM    127  H   UNL     1      28.393   7.653  21.533  1.00  0.00     0.234 HD
ENDBRANCH 123 126
ENDBRANCH 109 123
ENDBRANCH  52 103
ENDBRANCH  51  52
ENDBRANCH  50  51
ENDBRANCH  49  50
ENDBRANCH  48  49
ENDBRANCH  47  48
ENDBRANCH  46  47
ENDBRANCH  45  46
ENDBRANCH  44  45
ENDBRANCH   1  44
TORSDOF 43
ENDMDL
MODEL 9
REMARK VINA RESULT:    -9.606      0.903      3.934
REMARK INTER + INTRA:         -41.400
REMARK INTER:                 -30.528
REMARK INTRA:                 -10.872
REMARK UNBOUND:               -10.175
REMARK SMILES Cc1cc(C(=O)N[C@H](CNC(=O)c2cccc(COc3ccccc3C(N)=O)c2)C(=O)NCCCCCCCCCCCC([C@]23C[C@]4(S(=O)(=O)O)C[C@](S(=O)(=O)O)(C2)C[C@](S(=O)(=O)O)(C3)C4)([C@]23C[C@]4(S(=O)(=O)O)C[C@](S(=O)(=O)O)(C2)C[C@](S(=O)(=O)O)(C3)C4)[C@]23C[C@]4(S(=O)(=O)O)C[C@](S(=O)(=O)O)(C2)C[C@](S(=O)(=O)O)(C3)C4)[nH]n1
REMARK SMILES IDX 35 1 34 2 33 3 32 4 30 5 31 6 8 8 9 9 10 10 12 11 11 12
REMARK SMILES IDX 13 14 14 15 29 16 15 17 17 18 16 19 18 20 19 21 20 22 25 23
REMARK SMILES IDX 21 24 24 25 22 26 23 27 26 28 27 29 28 30 7 33 5 34 6 36
REMARK SMILES IDX 4 37 3 38 111 39 2 40 112 41 1 43 36 44 37 45 38 46 39 47
REMARK SMILES IDX 40 48 41 49 42 50 43 51 44 52 67 53 80 54 87 55 68 56 75 57
REMARK SMILES IDX 82 58 69 59 81 60 74 61 88 62 76 63 77 64 78 65 79 66 83 68
REMARK SMILES IDX 84 69 85 70 86 71 70 73 71 74 72 75 73 76 45 78 46 79 58 80
REMARK SMILES IDX 65 81 47 82 53 83 60 84 52 85 66 86 59 87 48 88 49 89 50 90
REMARK SMILES IDX 51 91 54 93 55 94 56 95 57 96 61 98 62 99 63 100 64 101
REMARK SMILES IDX 89 103 102 104 109 105 90 106 97 107 104 108 91 109 103 110
REMARK SMILES IDX 96 111 110 112 98 113 99 114 100 115 101 116 105 118 106 119
REMARK SMILES IDX 107 120 108 121 92 123 93 124 94 125 95 126
REMARK H PARENT 32 7 10 13 27 31 27 32 7 35 111 42 79 67 86 72 73 77 51 92
REMARK H PARENT 57 97 64 102 101 117 108 122 95 127
REMARK Flexibility Score: inf
ROOT
ATOM      1  C   UNL     1      20.861   1.525  14.653  1.00  0.00     0.002 C 
ENDROOT
BRANCH   1   2
ATOM      2  C   UNL     1      19.632   1.791  13.874  1.00  0.00     0.021 C 
BRANCH   2   3
ATOM      3  C   UNL     1      18.807   0.617  13.512  1.00  0.00     0.116 C 
BRANCH   3   4
ATOM      4  N   UNL     1      18.980  -0.594  14.192  1.00  0.00    -0.354 N 
ATOM      5  C   UNL     1      18.303  -1.114  15.289  1.00  0.00     0.244 C 
ATOM      6  O   UNL     1      17.392  -0.584  15.962  1.00  0.00    -0.273 OA
ATOM      7  H   UNL     1      19.774  -1.225  13.785  1.00  0.00     0.163 HD
BRANCH   5   8
ATOM      8  C   UNL     1      18.713  -2.526  15.723  1.00  0.00     0.191 C 
BRANCH   8   9
ATOM      9  C   UNL     1      19.027  -2.590  17.167  1.00  0.00     0.151 C 
BRANCH   9  10
ATOM     10  N   UNL     1      20.099  -1.611  17.463  1.00  0.00    -0.349 N 
ATOM     11  O   UNL     1      21.677  -2.956  16.358  1.00  0.00    -0.269 OA
ATOM     12  C   UNL     1      21.390  -1.928  17.001  1.00  0.00     0.251 C 
ATOM     13  H   UNL     1      19.861  -0.770  17.980  1.00  0.00     0.163 HD
BRANCH  12  14
ATOM     14  C   UNL     1      22.462  -0.950  17.317  1.00  0.00     0.040 A 
ATOM     15  C   UNL     1      23.746  -1.226  16.918  1.00  0.00     0.014 A 
ATOM     16  C   UNL     1      22.102   0.189  17.988  1.00  0.00     0.021 A 
ATOM     17  C   UNL     1      24.745  -0.298  17.209  1.00  0.00     0.001 A 
ATOM     18  C   UNL     1      23.081   1.096  18.272  1.00  0.00    -0.010 A 
ATOM     19  C   UNL     1      24.385   0.844  17.882  1.00  0.00     0.007 A 
BRANCH  18  20
ATOM     20  C   UNL     1      22.703   2.333  18.990  1.00  0.00     0.265 C 
BRANCH  20  21
ATOM     21  O   UNL     1      21.311   2.520  18.953  1.00  0.00    -0.488 OA
BRANCH  21  22
ATOM     22  C   UNL     1      20.495   2.731  20.030  1.00  0.00     0.132 A 
ATOM     23  C   UNL     1      19.244   2.159  20.043  1.00  0.00     0.081 A 
ATOM     24  C   UNL     1      20.864   3.494  21.110  1.00  0.00     0.047 A 
ATOM     25  C   UNL     1      18.393   2.357  21.126  1.00  0.00     0.018 A 
ATOM     26  C   UNL     1      20.034   3.705  22.198  1.00  0.00     0.004 A 
ATOM     27  C   UNL     1      18.779   3.119  22.193  1.00  0.00     0.001 A 
BRANCH  23  28
ATOM     28  C   UNL     1      18.751   1.340  18.964  1.00  0.00     0.252 C 
ATOM     29  N   UNL     1      18.677   1.880  17.627  1.00  0.00    -0.365 N 
ATOM     30  O   UNL     1      18.376   0.171  19.124  1.00  0.00    -0.269 OA
ATOM     31  H   UNL     1      19.265   1.499  16.863  1.00  0.00     0.159 HD
ATOM     32  H   UNL     1      18.011   2.652  17.485  1.00  0.00     0.159 HD
ENDBRANCH  23  28
ENDBRANCH  21  22
ENDBRANCH  20  21
ENDBRANCH  18  20
ENDBRANCH  12  14
ENDBRANCH   9  10
ENDBRANCH   8   9
BRANCH   8  33
ATOM     33  N   UNL     1      17.777  -3.509  15.260  1.00  0.00    -0.337 N 
ATOM     34  C   UNL     1      18.231  -4.836  14.950  1.00  0.00     0.270 C 
ATOM     35  H   UNL     1      16.767  -3.310  15.138  1.00  0.00     0.164 HD
ATOM     36  O   UNL     1      19.445  -5.097  15.073  1.00  0.00    -0.268 OA
BRANCH  34  37
ATOM     37  C   UNL     1      17.285  -5.842  14.506  1.00  0.00     0.123 A 
ATOM     38  C   UNL     1      17.493  -6.789  13.522  1.00  0.00     0.058 A 
ATOM     39  N   UNL     1      16.026  -6.102  14.963  1.00  0.00    -0.273 N 
ATOM     40  C   UNL     1      16.376  -7.570  13.424  1.00  0.00     0.060 A 
ATOM     41  N   UNL     1      15.484  -7.119  14.332  1.00  0.00    -0.180 NA
ATOM     42  H   UNL     1      15.587  -5.541  15.722  1.00  0.00     0.190 HD
ATOM     43  C   UNL     1      16.150  -8.705  12.503  1.00  0.00     0.069 C 
ENDBRANCH  34  37
ENDBRANCH   8  33
ENDBRANCH   5   8
ENDBRANCH   3   4
ENDBRANCH   2   3
ENDBRANCH   1   2
BRANCH   1  44
ATOM     44  C   UNL     1      21.985   2.440  14.162  1.00  0.00     0.000 C 
BRANCH  44  45
ATOM     45  C   UNL     1      23.272   2.325  14.820  1.00  0.00     0.000 C 
BRANCH  45  46
ATOM     46  C   UNL     1      24.129   3.341  15.364  1.00  0.00     0.000 C 
BRANCH  46  47
ATOM     47  C   UNL     1      25.571   3.333  15.547  1.00  0.00     0.000 C 
BRANCH  47  48
ATOM     48  C   UNL     1      26.192   4.322  16.489  1.00  0.00     0.000 C 
BRANCH  48  49
ATOM     49  C   UNL     1      25.315   4.476  17.728  1.00  0.00     0.000 C 
BRANCH  49  50
ATOM     50  C   UNL     1      25.422   6.000  18.151  1.00  0.00     0.001 C 
BRANCH  50  51
ATOM     51  C   UNL     1      26.502   6.622  17.521  1.00  0.00     0.009 C 
BRANCH  51  52
ATOM     52  C   UNL     1      26.883   7.973  16.965  1.00  0.00    -0.012 C 
BRANCH  52  53
ATOM     53  C   UNL     1      26.391   8.993  17.998  1.00  0.00    -0.018 C 
ATOM     54  C   UNL     1      27.119   8.889  19.336  1.00  0.00     0.033 C 
ATOM     55  C   UNL     1      26.534  10.439  17.538  1.00  0.00     0.033 C 
ATOM     56  C   UNL     1      25.026   8.940  18.468  1.00  0.00     0.033 C 
ATOM     57  C   UNL     1      26.948  10.041  20.239  1.00  0.00     0.101 C 
ATOM     58  C   UNL     1      26.066  11.474  18.558  1.00  0.00     0.101 C 
ATOM     59  C   UNL     1      24.675   9.982  19.557  1.00  0.00     0.101 C 
ATOM     60  C   UNL     1      27.059  11.408  19.697  1.00  0.00     0.051 C 
ATOM     61  C   UNL     1      25.495   9.953  20.767  1.00  0.00     0.051 C 
ATOM     62  C   UNL     1      24.655  11.358  18.968  1.00  0.00     0.051 C 
BRANCH  57  63
ATOM     63  S   UNL     1      27.965   9.794  21.675  1.00  0.00     0.270 S 
ATOM     64  O   UNL     1      28.790  11.001  21.977  1.00  0.00    -0.199 OA
ATOM     65  O   UNL     1      28.935   8.662  21.374  1.00  0.00    -0.199 OA
BRANCH  63  66
ATOM     66  O   UNL     1      27.017   9.305  22.948  1.00  0.00    -0.285 OA
ATOM     67  H   UNL     1      26.336   9.961  23.162  1.00  0.00     0.234 HD
ENDBRANCH  63  66
ENDBRANCH  57  63
BRANCH  58  68
ATOM     68  S   UNL     1      26.224  13.095  17.825  1.00  0.00     0.270 S 
ATOM     69  O   UNL     1      24.853  13.665  17.536  1.00  0.00    -0.199 OA
ATOM     70  O   UNL     1      26.843  13.988  18.870  1.00  0.00    -0.199 OA
BRANCH  68  71
ATOM     71  O   UNL     1      27.197  13.089  16.488  1.00  0.00    -0.285 OA
ATOM     72  H   UNL     1      27.557  13.977  16.341  1.00  0.00     0.234 HD
ENDBRANCH  68  71
ENDBRANCH  58  68
BRANCH  59  73
ATOM     73  S   UNL     1      22.979   9.632  20.044  1.00  0.00     0.270 S 
ATOM     74  O   UNL     1      22.081  10.707  19.451  1.00  0.00    -0.199 OA
ATOM     75  O   UNL     1      22.576   8.348  19.419  1.00  0.00    -0.199 OA
BRANCH  73  76
ATOM     76  O   UNL     1      22.823   9.559  21.690  1.00  0.00    -0.285 OA
ATOM     77  H   UNL     1      22.071  10.117  22.039  1.00  0.00     0.234 HD
ENDBRANCH  73  76
ENDBRANCH  59  73
ENDBRANCH  52  53
BRANCH  52  78
ATOM     78  C   UNL     1      26.135   8.161  15.642  1.00  0.00    -0.018 C 
ATOM     79  C   UNL     1      26.224   7.111  14.626  1.00  0.00     0.033 C 
ATOM     80  C   UNL     1      26.290   9.487  14.992  1.00  0.00     0.033 C 
ATOM     81  C   UNL     1      24.616   8.289  15.875  1.00  0.00     0.033 C 
ATOM     82  C   UNL     1      25.317   7.281  13.394  1.00  0.00     0.101 C 
ATOM     83  C   UNL     1      25.687   9.606  13.621  1.00  0.00     0.101 C 
ATOM     84  C   UNL     1      23.849   8.568  14.584  1.00  0.00     0.101 C 
ATOM     85  C   UNL     1      25.842   8.519  12.667  1.00  0.00     0.051 C 
ATOM     86  C   UNL     1      23.891   7.318  13.710  1.00  0.00     0.051 C 
ATOM     87  C   UNL     1      24.170   9.780  13.842  1.00  0.00     0.051 C 
BRANCH  82  88
ATOM     88  S   UNL     1      25.662   5.889  12.315  1.00  0.00     0.270 S 
ATOM     89  O   UNL     1      25.944   6.364  10.923  1.00  0.00    -0.199 OA
ATOM     90  O   UNL     1      24.513   4.919  12.348  1.00  0.00    -0.199 OA
BRANCH  88  91
ATOM     91  O   UNL     1      27.004   5.061  12.912  1.00  0.00    -0.285 OA
ATOM     92  H   UNL     1      27.809   5.622  12.961  1.00  0.00     0.234 HD
ENDBRANCH  88  91
ENDBRANCH  82  88
BRANCH  83  93
ATOM     93  S   UNL     1      26.183  11.151  12.893  1.00  0.00     0.270 S 
ATOM     94  O   UNL     1      27.014  10.796  11.667  1.00  0.00    -0.199 OA
ATOM     95  O   UNL     1      27.124  11.828  13.849  1.00  0.00    -0.199 OA
BRANCH  93  96
ATOM     96  O   UNL     1      24.907  12.108  12.452  1.00  0.00    -0.285 OA
ATOM     97  H   UNL     1      24.983  12.993  12.851  1.00  0.00     0.234 HD
ENDBRANCH  93  96
ENDBRANCH  83  93
BRANCH  84  98
ATOM     98  S   UNL     1      22.116   8.706  15.066  1.00  0.00     0.270 S 
ATOM     99  O   UNL     1      21.249   7.760  14.326  1.00  0.00    -0.199 OA
ATOM    100  O   UNL     1      21.620  10.097  14.853  1.00  0.00    -0.199 OA
BRANCH  98 101
ATOM    101  O   UNL     1      21.979   8.383  16.723  1.00  0.00    -0.285 OA
ATOM    102  H   UNL     1      21.138   7.925  16.938  1.00  0.00     0.234 HD
ENDBRANCH  98 101
ENDBRANCH  84  98
ENDBRANCH  52  78
BRANCH  52 103
ATOM    103  C   UNL     1      28.371   7.854  16.795  1.00  0.00    -0.018 C 
ATOM    104  C   UNL     1      28.934   6.495  16.710  1.00  0.00     0.033 C 
ATOM    105  C   UNL     1      28.858   8.524  15.505  1.00  0.00     0.033 C 
ATOM    106  C   UNL     1      29.199   8.689  17.705  1.00  0.00     0.033 C 
ATOM    107  C   UNL     1      30.438   6.388  16.417  1.00  0.00     0.101 C 
ATOM    108  C   UNL     1      30.362   8.340  15.262  1.00  0.00     0.101 C 
ATOM    109  C   UNL     1      30.689   8.449  17.554  1.00  0.00     0.101 C 
ATOM    110  C   UNL     1      30.758   6.911  15.083  1.00  0.00     0.051 C 
ATOM    111  C   UNL     1      31.147   7.057  17.561  1.00  0.00     0.051 C 
ATOM    112  C   UNL     1      31.206   9.081  16.267  1.00  0.00     0.051 C 
BRANCH 107 113
ATOM    113  S   UNL     1      30.875   4.657  16.474  1.00  0.00     0.270 S 
ATOM    114  O   UNL     1      29.696   3.785  16.220  1.00  0.00    -0.199 OA
ATOM    115  O   UNL     1      31.539   4.350  17.780  1.00  0.00    -0.199 OA
BRANCH 113 116
ATOM    116  O   UNL     1      32.012   4.408  15.253  1.00  0.00    -0.285 OA
ATOM    117  H   UNL     1      32.855   4.858  15.432  1.00  0.00     0.234 HD
ENDBRANCH 113 116
ENDBRANCH 107 113
BRANCH 108 118
ATOM    118  S   UNL     1      30.728   9.129  13.682  1.00  0.00     0.270 S 
ATOM    119  O   UNL     1      31.196   8.125  12.700  1.00  0.00    -0.199 OA
ATOM    120  O   UNL     1      31.844  10.118  13.951  1.00  0.00    -0.199 OA
BRANCH 118 121
ATOM    121  O   UNL     1      29.387   9.986  13.193  1.00  0.00    -0.285 OA
ATOM    122  H   UNL     1      28.980   9.523  12.423  1.00  0.00     0.234 HD
ENDBRANCH 118 121
ENDBRANCH 108 118
BRANCH 109 123
ATOM    123  S   UNL     1      31.550   9.326  18.859  1.00  0.00     0.270 S 
ATOM    124  O   UNL     1      32.792   9.978  18.324  1.00  0.00    -0.199 OA
ATOM    125  O   UNL     1      31.963   8.397  19.943  1.00  0.00    -0.199 OA
BRANCH 123 126
ATOM    126  O   UNL     1      30.596  10.524  19.532  1.00  0.00    -0.285 OA
ATOM    127  H   UNL     1      31.050  11.385  19.369  1.00  0.00     0.234 HD
ENDBRANCH 123 126
ENDBRANCH 109 123
ENDBRANCH  52 103
ENDBRANCH  51  52
ENDBRANCH  50  51
ENDBRANCH  49  50
ENDBRANCH  48  49
ENDBRANCH  47  48
ENDBRANCH  46  47
ENDBRANCH  45  46
ENDBRANCH  44  45
ENDBRANCH   1  44
TORSDOF 43
ENDMDL
MODEL 10
REMARK VINA RESULT:    -9.592      1.009      3.385
REMARK INTER + INTRA:         -41.356
REMARK INTER:                 -31.324
REMARK INTRA:                 -10.032
REMARK UNBOUND:               -10.175
REMARK SMILES Cc1cc(C(=O)N[C@H](CNC(=O)c2cccc(COc3ccccc3C(N)=O)c2)C(=O)NCCCCCCCCCCCC([C@]23C[C@]4(S(=O)(=O)O)C[C@](S(=O)(=O)O)(C2)C[C@](S(=O)(=O)O)(C3)C4)([C@]23C[C@]4(S(=O)(=O)O)C[C@](S(=O)(=O)O)(C2)C[C@](S(=O)(=O)O)(C3)C4)[C@]23C[C@]4(S(=O)(=O)O)C[C@](S(=O)(=O)O)(C2)C[C@](S(=O)(=O)O)(C3)C4)[nH]n1
REMARK SMILES IDX 35 1 34 2 33 3 32 4 30 5 31 6 8 8 9 9 10 10 12 11 11 12
REMARK SMILES IDX 13 14 14 15 29 16 15 17 17 18 16 19 18 20 19 21 20 22 25 23
REMARK SMILES IDX 21 24 24 25 22 26 23 27 26 28 27 29 28 30 7 33 5 34 6 36
REMARK SMILES IDX 4 37 3 38 111 39 2 40 112 41 1 43 36 44 37 45 38 46 39 47
REMARK SMILES IDX 40 48 41 49 42 50 43 51 44 52 67 53 80 54 87 55 68 56 75 57
REMARK SMILES IDX 82 58 69 59 81 60 74 61 88 62 76 63 77 64 78 65 79 66 83 68
REMARK SMILES IDX 84 69 85 70 86 71 70 73 71 74 72 75 73 76 45 78 46 79 58 80
REMARK SMILES IDX 65 81 47 82 53 83 60 84 52 85 66 86 59 87 48 88 49 89 50 90
REMARK SMILES IDX 51 91 54 93 55 94 56 95 57 96 61 98 62 99 63 100 64 101
REMARK SMILES IDX 89 103 102 104 109 105 90 106 97 107 104 108 91 109 103 110
REMARK SMILES IDX 96 111 110 112 98 113 99 114 100 115 101 116 105 118 106 119
REMARK SMILES IDX 107 120 108 121 92 123 93 124 94 125 95 126
REMARK H PARENT 32 7 10 13 27 31 27 32 7 35 111 42 79 67 86 72 73 77 51 92
REMARK H PARENT 57 97 64 102 101 117 108 122 95 127
REMARK Flexibility Score: inf
ROOT
ATOM      1  C   UNL     1      20.371   1.525  14.922  1.00  0.00     0.002 C 
ENDROOT
BRANCH   1   2
ATOM      2  C   UNL     1      19.432   1.701  13.794  1.00  0.00     0.021 C 
BRANCH   2   3
ATOM      3  C   UNL     1      18.690   0.497  13.354  1.00  0.00     0.116 C 
BRANCH   3   4
ATOM      4  N   UNL     1      18.831  -0.705  14.056  1.00  0.00    -0.354 N 
ATOM      5  C   UNL     1      18.030  -1.268  15.044  1.00  0.00     0.244 C 
ATOM      6  O   UNL     1      17.003  -0.793  15.575  1.00  0.00    -0.273 OA
ATOM      7  H   UNL     1      19.710  -1.287  13.772  1.00  0.00     0.163 HD
BRANCH   5   8
ATOM      8  C   UNL     1      18.453  -2.656  15.538  1.00  0.00     0.191 C 
BRANCH   8   9
ATOM      9  C   UNL     1      18.695  -2.672  16.997  1.00  0.00     0.151 C 
BRANCH   9  10
ATOM     10  N   UNL     1      19.746  -1.677  17.314  1.00  0.00    -0.349 N 
ATOM     11  O   UNL     1      21.398  -3.086  16.416  1.00  0.00    -0.269 OA
ATOM     12  C   UNL     1      21.067  -2.021  16.971  1.00  0.00     0.251 C 
ATOM     13  H   UNL     1      19.473  -0.806  17.760  1.00  0.00     0.163 HD
BRANCH  12  14
ATOM     14  C   UNL     1      22.116  -1.025  17.309  1.00  0.00     0.040 A 
ATOM     15  C   UNL     1      23.423  -1.312  17.000  1.00  0.00     0.014 A 
ATOM     16  C   UNL     1      21.714   0.141  17.905  1.00  0.00     0.021 A 
ATOM     17  C   UNL     1      24.401  -0.368  17.310  1.00  0.00     0.001 A 
ATOM     18  C   UNL     1      22.672   1.064  18.207  1.00  0.00    -0.010 A 
ATOM     19  C   UNL     1      23.998   0.801  17.908  1.00  0.00     0.007 A 
BRANCH  18  20
ATOM     20  C   UNL     1      22.249   2.329  18.846  1.00  0.00     0.265 C 
BRANCH  20  21
ATOM     21  O   UNL     1      21.337   2.078  19.885  1.00  0.00    -0.488 OA
BRANCH  21  22
ATOM     22  C   UNL     1      19.983   2.260  19.832  1.00  0.00     0.132 A 
ATOM     23  C   UNL     1      19.327   2.723  20.950  1.00  0.00     0.081 A 
ATOM     24  C   UNL     1      19.235   2.000  18.711  1.00  0.00     0.047 A 
ATOM     25  C   UNL     1      17.950   2.919  20.925  1.00  0.00     0.018 A 
ATOM     26  C   UNL     1      17.864   2.186  18.664  1.00  0.00     0.004 A 
ATOM     27  C   UNL     1      17.223   2.655  19.798  1.00  0.00     0.001 A 
BRANCH  23  28
ATOM     28  C   UNL     1      20.011   3.029  22.182  1.00  0.00     0.252 C 
ATOM     29  N   UNL     1      20.944   2.080  22.742  1.00  0.00    -0.365 N 
ATOM     30  O   UNL     1      19.834   4.084  22.806  1.00  0.00    -0.269 OA
ATOM     31  H   UNL     1      21.954   2.303  22.814  1.00  0.00     0.159 HD
ATOM     32  H   UNL     1      20.548   1.186  23.060  1.00  0.00     0.159 HD
ENDBRANCH  23  28
ENDBRANCH  21  22
ENDBRANCH  20  21
ENDBRANCH  18  20
ENDBRANCH  12  14
ENDBRANCH   9  10
ENDBRANCH   8   9
BRANCH   8  33
ATOM     33  N   UNL     1      17.565  -3.675  15.058  1.00  0.00    -0.337 N 
ATOM     34  C   UNL     1      18.065  -4.999  14.813  1.00  0.00     0.270 C 
ATOM     35  H   UNL     1      16.558  -3.505  14.880  1.00  0.00     0.164 HD
ATOM     36  O   UNL     1      19.276  -5.226  15.006  1.00  0.00    -0.268 OA
BRANCH  34  37
ATOM     37  C   UNL     1      17.166  -6.041  14.353  1.00  0.00     0.123 A 
ATOM     38  C   UNL     1      17.429  -6.980  13.374  1.00  0.00     0.058 A 
ATOM     39  N   UNL     1      15.910  -6.349  14.785  1.00  0.00    -0.273 N 
ATOM     40  C   UNL     1      16.345  -7.803  13.256  1.00  0.00     0.060 A 
ATOM     41  N   UNL     1      15.419  -7.386  14.145  1.00  0.00    -0.180 NA
ATOM     42  H   UNL     1      15.435  -5.804  15.535  1.00  0.00     0.190 HD
ATOM     43  C   UNL     1      16.180  -8.946  12.332  1.00  0.00     0.069 C 
ENDBRANCH  34  37
ENDBRANCH   8  33
ENDBRANCH   5   8
ENDBRANCH   3   4
ENDBRANCH   2   3
ENDBRANCH   1   2
BRANCH   1  44
ATOM     44  C   UNL     1      21.801   1.421  14.385  1.00  0.00     0.000 C 
BRANCH  44  45
ATOM     45  C   UNL     1      22.637   2.602  14.482  1.00  0.00     0.000 C 
BRANCH  45  46
ATOM     46  C   UNL     1      23.922   2.780  15.095  1.00  0.00     0.000 C 
BRANCH  46  47
ATOM     47  C   UNL     1      24.421   3.889  15.892  1.00  0.00     0.000 C 
BRANCH  47  48
ATOM     48  C   UNL     1      25.685   3.710  16.681  1.00  0.00     0.000 C 
BRANCH  48  49
ATOM     49  C   UNL     1      25.535   4.360  18.052  1.00  0.00     0.000 C 
BRANCH  49  50
ATOM     50  C   UNL     1      25.142   5.871  17.777  1.00  0.00     0.001 C 
BRANCH  50  51
ATOM     51  C   UNL     1      26.240   6.716  17.952  1.00  0.00     0.009 C 
BRANCH  51  52
ATOM     52  C   UNL     1      26.789   8.013  17.406  1.00  0.00    -0.012 C 
BRANCH  52  53
ATOM     53  C   UNL     1      26.326   9.097  18.387  1.00  0.00    -0.018 C 
ATOM     54  C   UNL     1      25.783   8.527  19.696  1.00  0.00     0.033 C 
ATOM     55  C   UNL     1      27.426  10.082  18.766  1.00  0.00     0.033 C 
ATOM     56  C   UNL     1      25.226   9.965  18.034  1.00  0.00     0.033 C 
ATOM     57  C   UNL     1      25.651   9.495  20.799  1.00  0.00     0.101 C 
ATOM     58  C   UNL     1      26.993  11.159  19.756  1.00  0.00     0.101 C 
ATOM     59  C   UNL     1      24.816  10.971  19.137  1.00  0.00     0.101 C 
ATOM     60  C   UNL     1      26.749  10.443  21.066  1.00  0.00     0.051 C 
ATOM     61  C   UNL     1      24.447  10.396  20.430  1.00  0.00     0.051 C 
ATOM     62  C   UNL     1      25.877  12.012  19.308  1.00  0.00     0.051 C 
BRANCH  57  63
ATOM     63  S   UNL     1      25.132   8.626  22.259  1.00  0.00     0.270 S 
ATOM     64  O   UNL     1      23.810   9.117  22.749  1.00  0.00    -0.199 OA
ATOM     65  O   UNL     1      26.143   8.912  23.359  1.00  0.00    -0.199 OA
BRANCH  63  66
ATOM     66  O   UNL     1      25.167   6.991  21.973  1.00  0.00    -0.285 OA
ATOM     67  H   UNL     1      25.623   6.511  22.681  1.00  0.00     0.234 HD
ENDBRANCH  63  66
ENDBRANCH  57  63
BRANCH  58  68
ATOM     68  S   UNL     1      28.369  12.266  20.019  1.00  0.00     0.270 S 
ATOM     69  O   UNL     1      29.160  11.825  21.231  1.00  0.00    -0.199 OA
ATOM     70  O   UNL     1      29.289  12.109  18.833  1.00  0.00    -0.199 OA
BRANCH  68  71
ATOM     71  O   UNL     1      27.896  13.847  20.118  1.00  0.00    -0.285 OA
ATOM     72  H   UNL     1      28.513  14.339  20.680  1.00  0.00     0.234 HD
ENDBRANCH  68  71
ENDBRANCH  58  68
BRANCH  59  73
ATOM     73  S   UNL     1      23.375  11.837  18.499  1.00  0.00     0.270 S 
ATOM     74  O   UNL     1      22.189  11.515  19.395  1.00  0.00    -0.199 OA
ATOM     75  O   UNL     1      23.620  13.295  18.624  1.00  0.00    -0.199 OA
BRANCH  73  76
ATOM     76  O   UNL     1      23.067  11.426  16.925  1.00  0.00    -0.285 OA
ATOM     77  H   UNL     1      23.018  12.216  16.315  1.00  0.00     0.234 HD
ENDBRANCH  73  76
ENDBRANCH  59  73
ENDBRANCH  52  53
BRANCH  52  78
ATOM     78  C   UNL     1      26.156   8.245  16.030  1.00  0.00    -0.018 C 
ATOM     79  C   UNL     1      26.617   9.377  15.224  1.00  0.00     0.033 C 
ATOM     80  C   UNL     1      24.674   8.177  15.978  1.00  0.00     0.033 C 
ATOM     81  C   UNL     1      26.392   7.038  15.099  1.00  0.00     0.033 C 
ATOM     82  C   UNL     1      26.067   9.454  13.789  1.00  0.00     0.101 C 
ATOM     83  C   UNL     1      24.058   8.563  14.663  1.00  0.00     0.101 C 
ATOM     84  C   UNL     1      25.696   7.199  13.749  1.00  0.00     0.101 C 
ATOM     85  C   UNL     1      24.568   9.716  13.939  1.00  0.00     0.051 C 
ATOM     86  C   UNL     1      26.404   8.297  12.962  1.00  0.00     0.051 C 
ATOM     87  C   UNL     1      24.247   7.346  13.735  1.00  0.00     0.051 C 
BRANCH  82  88
ATOM     88  S   UNL     1      26.760  10.941  13.061  1.00  0.00     0.270 S 
ATOM     89  O   UNL     1      25.959  12.142  13.461  1.00  0.00    -0.199 OA
ATOM     90  O   UNL     1      26.829  10.794  11.565  1.00  0.00    -0.199 OA
BRANCH  88  91
ATOM     91  O   UNL     1      28.348  11.118  13.597  1.00  0.00    -0.285 OA
ATOM     92  H   UNL     1      28.437  11.012  14.571  1.00  0.00     0.234 HD
ENDBRANCH  88  91
ENDBRANCH  82  88
BRANCH  83  93
ATOM     93  S   UNL     1      22.293   8.676  14.852  1.00  0.00     0.270 S 
ATOM     94  O   UNL     1      21.899  10.061  14.357  1.00  0.00    -0.199 OA
ATOM     95  O   UNL     1      21.986   8.659  16.323  1.00  0.00    -0.199 OA
BRANCH  93  96
ATOM     96  O   UNL     1      21.468   7.517  14.004  1.00  0.00    -0.285 OA
ATOM     97  H   UNL     1      20.901   6.993  14.597  1.00  0.00     0.234 HD
ENDBRANCH  93  96
ENDBRANCH  83  93
BRANCH  84  98
ATOM     98  S   UNL     1      26.067   5.693  12.827  1.00  0.00     0.270 S 
ATOM     99  O   UNL     1      26.626   5.978  11.485  1.00  0.00    -0.199 OA
ATOM    100  O   UNL     1      24.845   4.850  12.682  1.00  0.00    -0.199 OA
BRANCH  98 101
ATOM    101  O   UNL     1      27.196   4.778  13.699  1.00  0.00    -0.285 OA
ATOM    102  H   UNL     1      27.281   5.090  14.626  1.00  0.00     0.234 HD
ENDBRANCH  98 101
ENDBRANCH  84  98
ENDBRANCH  52  78
BRANCH  52 103
ATOM    103  C   UNL     1      28.266   7.749  17.345  1.00  0.00    -0.018 C 
ATOM    104  C   UNL     1      29.087   8.688  16.562  1.00  0.00     0.033 C 
ATOM    105  C   UNL     1      28.914   7.779  18.734  1.00  0.00     0.033 C 
ATOM    106  C   UNL     1      28.664   6.349  17.037  1.00  0.00     0.033 C 
ATOM    107  C   UNL     1      30.608   8.476  16.605  1.00  0.00     0.101 C 
ATOM    108  C   UNL     1      30.437   7.600  18.692  1.00  0.00     0.101 C 
ATOM    109  C   UNL     1      30.163   6.168  16.889  1.00  0.00     0.101 C 
ATOM    110  C   UNL     1      31.138   8.695  17.957  1.00  0.00     0.051 C 
ATOM    111  C   UNL     1      30.869   7.116  16.022  1.00  0.00     0.051 C 
ATOM    112  C   UNL     1      30.846   6.218  18.251  1.00  0.00     0.051 C 
BRANCH 107 113
ATOM    113  S   UNL     1      31.349   9.667  15.499  1.00  0.00     0.270 S 
ATOM    114  O   UNL     1      30.539  10.913  15.413  1.00  0.00    -0.199 OA
ATOM    115  O   UNL     1      31.570   9.039  14.159  1.00  0.00    -0.199 OA
BRANCH 113 116
ATOM    116  O   UNL     1      32.863  10.044  16.143  1.00  0.00    -0.285 OA
ATOM    117  H   UNL     1      33.199   9.348  16.733  1.00  0.00     0.234 HD
ENDBRANCH 113 116
ENDBRANCH 107 113
BRANCH 108 118
ATOM    118  S   UNL     1      31.018   7.731  20.394  1.00  0.00     0.270 S 
ATOM    119  O   UNL     1      32.486   7.924  20.425  1.00  0.00    -0.199 OA
ATOM    120  O   UNL     1      30.677   6.413  21.061  1.00  0.00    -0.199 OA
BRANCH 118 121
ATOM    121  O   UNL     1      30.157   8.933  21.159  1.00  0.00    -0.285 OA
ATOM    122  H   UNL     1      30.453   8.985  22.098  1.00  0.00     0.234 HD
ENDBRANCH 118 121
ENDBRANCH 108 118
BRANCH 109 123
ATOM    123  S   UNL     1      30.487   4.512  16.287  1.00  0.00     0.270 S 
ATOM    124  O   UNL     1      29.223   3.880  15.779  1.00  0.00    -0.199 OA
ATOM    125  O   UNL     1      31.017   3.644  17.371  1.00  0.00    -0.199 OA
BRANCH 123 126
ATOM    126  O   UNL     1      31.593   4.516  15.032  1.00  0.00    -0.285 OA
ATOM    127  H   UNL     1      32.472   4.287  15.417  1.00  0.00     0.234 HD
ENDBRANCH 123 126
ENDBRANCH 109 123
ENDBRANCH  52 103
ENDBRANCH  51  52
ENDBRANCH  50  51
ENDBRANCH  49  50
ENDBRANCH  48  49
ENDBRANCH  47  48
ENDBRANCH  46  47
ENDBRANCH  45  46
ENDBRANCH  44  45
ENDBRANCH   1  44
TORSDOF 43
ENDMDL
