MODEL 1
REMARK VINA RESULT:   -12.522      0.000      0.000
REMARK INTER + INTRA:         -15.509
REMARK INTER:                 -15.450
REMARK INTRA:                  -0.059
REMARK UNBOUND:                -0.059
REMARK SMILES O=C(c1cc(Cc2n[nH]c(=O)c3ccccc23)ccc1F)N1CCN(C(=O)C2CC2)CC1
REMARK SMILES IDX 5 1 18 2 19 3 20 4 3 5 4 6 21 7 6 8 7 9 15 10 14 11 16 12
REMARK SMILES IDX 13 13 17 14 12 15 10 16 8 17 9 18 11 19 2 21 1 22 22 23
REMARK SMILES IDX 23 24 32 25 24 26 31 27 25 28 26 29 27 30 28 31 29 32 30 33
REMARK H PARENT 9 20
REMARK Flexibility Score: inf
ROOT
ATOM      1  C   UNL     1      22.233   0.738  17.224  1.00  0.00    -0.041 A 
ATOM      2  C   UNL     1      22.866   1.027  16.047  1.00  0.00     0.007 A 
ATOM      3  C   UNL     1      22.897   0.076  15.020  1.00  0.00     0.040 A 
ATOM      4  C   UNL     1      22.295  -1.160  15.175  1.00  0.00     0.135 A 
ATOM      5  C   UNL     1      21.649  -1.467  16.361  1.00  0.00     0.076 A 
ATOM      6  C   UNL     1      21.636  -0.529  17.337  1.00  0.00     0.021 A 
ATOM      7  F   UNL     1      22.331  -2.070  14.178  1.00  0.00    -0.206 F 
ENDROOT
BRANCH   1   8
ATOM      8  C   UNL     1      22.118   1.674  18.364  1.00  0.00     0.094 C 
BRANCH   8   9
ATOM      9  C   UNL     1      20.712   1.940  18.715  1.00  0.00     0.073 A 
ATOM     10  C   UNL     1      20.899   3.123  22.169  1.00  0.00     0.001 A 
ATOM     11  C   UNL     1      19.568   3.324  22.491  1.00  0.00     0.001 A 
ATOM     12  C   UNL     1      21.287   2.665  20.937  1.00  0.00     0.011 A 
ATOM     13  C   UNL     1      18.599   3.056  21.550  1.00  0.00     0.014 A 
ATOM     14  C   UNL     1      20.345   2.389  19.980  1.00  0.00     0.011 A 
ATOM     15  C   UNL     1      19.017   2.591  20.306  1.00  0.00     0.050 A 
ATOM     16  C   UNL     1      18.085   2.327  19.316  1.00  0.00     0.272 A 
ATOM     17  N   UNL     1      19.712   1.713  17.822  1.00  0.00    -0.177 NA
ATOM     18  N   UNL     1      18.440   1.895  18.099  1.00  0.00    -0.243 N 
ATOM     19  O   UNL     1      16.889   2.501  19.590  1.00  0.00    -0.267 OA
ATOM     20  H   UNL     1      17.679   1.707  17.375  1.00  0.00     0.194 HD
ENDBRANCH   8   9
ENDBRANCH   1   8
BRANCH   5  21
ATOM     21  C   UNL     1      21.024  -2.792  16.455  1.00  0.00     0.256 C 
ATOM     22  O   UNL     1      21.582  -3.661  17.161  1.00  0.00    -0.269 OA
ATOM     23  N   UNL     1      19.828  -3.107  15.781  1.00  0.00    -0.335 N 
ATOM     24  C   UNL     1      19.274  -4.441  15.919  1.00  0.00     0.141 C 
ATOM     25  C   UNL     1      19.189  -2.089  14.975  1.00  0.00     0.141 C 
ATOM     26  C   UNL     1      18.109  -4.559  14.904  1.00  0.00     0.141 C 
ATOM     27  C   UNL     1      17.686  -2.147  15.071  1.00  0.00     0.141 C 
ATOM     28  N   UNL     1      17.196  -3.529  15.272  1.00  0.00    -0.339 N 
ATOM     29  C   UNL     1      15.917  -3.774  15.785  1.00  0.00     0.225 C 
ATOM     30  O   UNL     1      15.166  -2.762  16.096  1.00  0.00    -0.275 OA
BRANCH  29  31
ATOM     31  C   UNL     1      15.396  -5.138  15.982  1.00  0.00     0.079 C 
ATOM     32  C   UNL     1      13.983  -5.461  15.640  1.00  0.00     0.014 C 
ATOM     33  C   UNL     1      15.064  -5.818  14.633  1.00  0.00     0.014 C 
ENDBRANCH  29  31
ENDBRANCH   5  21
TORSDOF 4
ENDMDL
MODEL 2
REMARK VINA RESULT:   -12.045      1.765      2.271
REMARK INTER + INTRA:         -14.921
REMARK INTER:                 -15.238
REMARK INTRA:                   0.317
REMARK UNBOUND:                -0.059
REMARK SMILES O=C(c1cc(Cc2n[nH]c(=O)c3ccccc23)ccc1F)N1CCN(C(=O)C2CC2)CC1
REMARK SMILES IDX 5 1 18 2 19 3 20 4 3 5 4 6 21 7 6 8 7 9 15 10 14 11 16 12
REMARK SMILES IDX 13 13 17 14 12 15 10 16 8 17 9 18 11 19 2 21 1 22 22 23
REMARK SMILES IDX 23 24 32 25 24 26 31 27 25 28 26 29 27 30 28 31 29 32 30 33
REMARK H PARENT 9 20
REMARK Flexibility Score: inf
ROOT
ATOM      1  C   UNL     1      21.279   0.541  17.334  1.00  0.00    -0.041 A 
ATOM      2  C   UNL     1      22.129  -0.508  17.545  1.00  0.00     0.007 A 
ATOM      3  C   UNL     1      21.990  -1.681  16.793  1.00  0.00     0.040 A 
ATOM      4  C   UNL     1      21.002  -1.798  15.832  1.00  0.00     0.135 A 
ATOM      5  C   UNL     1      20.134  -0.743  15.606  1.00  0.00     0.076 A 
ATOM      6  C   UNL     1      20.291   0.378  16.349  1.00  0.00     0.021 A 
ATOM      7  F   UNL     1      20.876  -2.934  15.112  1.00  0.00    -0.206 F 
ENDROOT
BRANCH   1   8
ATOM      8  C   UNL     1      21.350   1.832  18.052  1.00  0.00     0.094 C 
BRANCH   8   9
ATOM      9  C   UNL     1      20.096   2.133  18.766  1.00  0.00     0.073 A 
ATOM     10  C   UNL     1      21.225   3.157  22.089  1.00  0.00     0.001 A 
ATOM     11  C   UNL     1      20.035   3.390  22.753  1.00  0.00     0.001 A 
ATOM     12  C   UNL     1      21.260   2.739  20.784  1.00  0.00     0.011 A 
ATOM     13  C   UNL     1      18.844   3.198  22.089  1.00  0.00     0.014 A 
ATOM     14  C   UNL     1      20.090   2.539  20.097  1.00  0.00     0.011 A 
ATOM     15  C   UNL     1      18.903   2.773  20.765  1.00  0.00     0.050 A 
ATOM     16  C   UNL     1      17.735   2.585  20.044  1.00  0.00     0.272 A 
ATOM     17  N   UNL     1      18.890   1.980  18.157  1.00  0.00    -0.177 NA
ATOM     18  N   UNL     1      17.743   2.195  18.763  1.00  0.00    -0.243 N 
ATOM     19  O   UNL     1      16.660   2.789  20.625  1.00  0.00    -0.267 OA
ATOM     20  H   UNL     1      16.813   2.065  18.257  1.00  0.00     0.194 HD
ENDBRANCH   8   9
ENDBRANCH   1   8
BRANCH   5  21
ATOM     21  C   UNL     1      19.114  -0.931  14.567  1.00  0.00     0.256 C 
ATOM     22  O   UNL     1      19.296  -0.388  13.455  1.00  0.00    -0.269 OA
ATOM     23  N   UNL     1      17.953  -1.697  14.784  1.00  0.00    -0.335 N 
ATOM     24  C   UNL     1      16.987  -1.832  13.708  1.00  0.00     0.141 C 
ATOM     25  C   UNL     1      17.760  -2.328  16.072  1.00  0.00     0.141 C 
ATOM     26  C   UNL     1      15.735  -2.523  14.303  1.00  0.00     0.141 C 
ATOM     27  C   UNL     1      17.129  -3.690  15.951  1.00  0.00     0.141 C 
ATOM     28  N   UNL     1      16.205  -3.774  14.798  1.00  0.00    -0.339 N 
ATOM     29  C   UNL     1      15.833  -5.009  14.257  1.00  0.00     0.225 C 
ATOM     30  O   UNL     1      16.327  -6.091  14.779  1.00  0.00    -0.275 OA
BRANCH  29  31
ATOM     31  C   UNL     1      14.904  -5.124  13.120  1.00  0.00     0.079 C 
ATOM     32  C   UNL     1      15.324  -4.698  11.757  1.00  0.00     0.014 C 
ATOM     33  C   UNL     1      15.388  -6.177  12.096  1.00  0.00     0.014 C 
ENDBRANCH  29  31
ENDBRANCH   5  21
TORSDOF 4
ENDMDL
MODEL 3
REMARK VINA RESULT:   -11.998      3.626      5.818
REMARK INTER + INTRA:         -14.863
REMARK INTER:                 -14.632
REMARK INTRA:                  -0.231
REMARK UNBOUND:                -0.059
REMARK SMILES O=C(c1cc(Cc2n[nH]c(=O)c3ccccc23)ccc1F)N1CCN(C(=O)C2CC2)CC1
REMARK SMILES IDX 5 1 18 2 19 3 20 4 3 5 4 6 21 7 6 8 7 9 15 10 14 11 16 12
REMARK SMILES IDX 13 13 17 14 12 15 10 16 8 17 9 18 11 19 2 21 1 22 22 23
REMARK SMILES IDX 23 24 32 25 24 26 31 27 25 28 26 29 27 30 28 31 29 32 30 33
REMARK H PARENT 9 20
REMARK Flexibility Score: inf
ROOT
ATOM      1  C   UNL     1      19.317  -3.418  16.807  1.00  0.00    -0.041 A 
ATOM      2  C   UNL     1      18.659  -3.857  17.922  1.00  0.00     0.007 A 
ATOM      3  C   UNL     1      17.349  -4.339  17.815  1.00  0.00     0.040 A 
ATOM      4  C   UNL     1      16.703  -4.379  16.593  1.00  0.00     0.135 A 
ATOM      5  C   UNL     1      17.356  -3.939  15.454  1.00  0.00     0.076 A 
ATOM      6  C   UNL     1      18.622  -3.478  15.587  1.00  0.00     0.021 A 
ATOM      7  F   UNL     1      15.438  -4.846  16.501  1.00  0.00    -0.206 F 
ENDROOT
BRANCH   1   8
ATOM      8  C   UNL     1      20.707  -2.913  16.800  1.00  0.00     0.094 C 
BRANCH   8   9
ATOM      9  C   UNL     1      20.787  -1.518  17.266  1.00  0.00     0.073 A 
ATOM     10  C   UNL     1      24.361  -0.766  17.118  1.00  0.00     0.001 A 
ATOM     11  C   UNL     1      24.417   0.529  17.601  1.00  0.00     0.001 A 
ATOM     12  C   UNL     1      23.180  -1.451  17.008  1.00  0.00     0.011 A 
ATOM     13  C   UNL     1      23.253   1.155  17.986  1.00  0.00     0.014 A 
ATOM     14  C   UNL     1      22.004  -0.853  17.384  1.00  0.00     0.011 A 
ATOM     15  C   UNL     1      22.065   0.441  17.866  1.00  0.00     0.050 A 
ATOM     16  C   UNL     1      20.862   1.032  18.219  1.00  0.00     0.272 A 
ATOM     17  N   UNL     1      19.669  -0.840  17.642  1.00  0.00    -0.177 NA
ATOM     18  N   UNL     1      19.692   0.390  18.104  1.00  0.00    -0.243 N 
ATOM     19  O   UNL     1      20.895   2.191  18.653  1.00  0.00    -0.267 OA
ATOM     20  H   UNL     1      18.796   0.894  18.391  1.00  0.00     0.194 HD
ENDBRANCH   8   9
ENDBRANCH   1   8
BRANCH   5  21
ATOM     21  C   UNL     1      16.615  -4.018  14.189  1.00  0.00     0.256 C 
ATOM     22  O   UNL     1      16.153  -2.961  13.707  1.00  0.00    -0.269 OA
ATOM     23  N   UNL     1      16.413  -5.236  13.512  1.00  0.00    -0.335 N 
ATOM     24  C   UNL     1      15.665  -5.235  12.269  1.00  0.00     0.141 C 
ATOM     25  C   UNL     1      16.961  -6.451  14.077  1.00  0.00     0.141 C 
ATOM     26  C   UNL     1      15.415  -6.715  11.884  1.00  0.00     0.141 C 
ATOM     27  C   UNL     1      17.484  -7.386  13.019  1.00  0.00     0.141 C 
ATOM     28  N   UNL     1      16.714  -7.287  11.760  1.00  0.00    -0.339 N 
ATOM     29  C   UNL     1      17.249  -7.737  10.547  1.00  0.00     0.225 C 
ATOM     30  O   UNL     1      18.447  -8.236  10.543  1.00  0.00    -0.275 OA
BRANCH  29  31
ATOM     31  C   UNL     1      16.500  -7.665   9.281  1.00  0.00     0.079 C 
ATOM     32  C   UNL     1      16.819  -8.595   8.163  1.00  0.00     0.014 C 
ATOM     33  C   UNL     1      15.639  -8.930   9.059  1.00  0.00     0.014 C 
ENDBRANCH  29  31
ENDBRANCH   5  21
TORSDOF 4
ENDMDL
MODEL 4
REMARK VINA RESULT:   -11.740      2.034      2.730
REMARK INTER + INTRA:         -14.544
REMARK INTER:                 -15.540
REMARK INTRA:                   0.996
REMARK UNBOUND:                -0.059
REMARK SMILES O=C(c1cc(Cc2n[nH]c(=O)c3ccccc23)ccc1F)N1CCN(C(=O)C2CC2)CC1
REMARK SMILES IDX 5 1 18 2 19 3 20 4 3 5 4 6 21 7 6 8 7 9 15 10 14 11 16 12
REMARK SMILES IDX 13 13 17 14 12 15 10 16 8 17 9 18 11 19 2 21 1 22 22 23
REMARK SMILES IDX 23 24 32 25 24 26 31 27 25 28 26 29 27 30 28 31 29 32 30 33
REMARK H PARENT 9 20
REMARK Flexibility Score: inf
ROOT
ATOM      1  C   UNL     1      20.464   1.127  16.346  1.00  0.00    -0.041 A 
ATOM      2  C   UNL     1      21.147   1.530  15.233  1.00  0.00     0.007 A 
ATOM      3  C   UNL     1      20.672   1.190  13.961  1.00  0.00     0.040 A 
ATOM      4  C   UNL     1      19.515   0.448  13.808  1.00  0.00     0.135 A 
ATOM      5  C   UNL     1      18.811   0.033  14.926  1.00  0.00     0.076 A 
ATOM      6  C   UNL     1      19.294   0.376  16.143  1.00  0.00     0.021 A 
ATOM      7  F   UNL     1      19.065   0.125  12.576  1.00  0.00    -0.206 F 
ENDROOT
BRANCH   1   8
ATOM      8  C   UNL     1      20.861   1.449  17.734  1.00  0.00     0.094 C 
BRANCH   8   9
ATOM      9  C   UNL     1      19.716   1.912  18.538  1.00  0.00     0.073 A 
ATOM     10  C   UNL     1      21.232   2.852  21.729  1.00  0.00     0.001 A 
ATOM     11  C   UNL     1      20.137   3.239  22.480  1.00  0.00     0.001 A 
ATOM     12  C   UNL     1      21.108   2.409  20.438  1.00  0.00     0.011 A 
ATOM     13  C   UNL     1      18.881   3.180  21.921  1.00  0.00     0.014 A 
ATOM     14  C   UNL     1      19.869   2.340  19.854  1.00  0.00     0.011 A 
ATOM     15  C   UNL     1      18.779   2.728  20.608  1.00  0.00     0.050 A 
ATOM     16  C   UNL     1      17.540   2.669  19.989  1.00  0.00     0.272 A 
ATOM     17  N   UNL     1      18.453   1.896  18.033  1.00  0.00    -0.177 NA
ATOM     18  N   UNL     1      17.395   2.258  18.723  1.00  0.00    -0.243 N 
ATOM     19  O   UNL     1      16.550   3.013  20.649  1.00  0.00    -0.267 OA
ATOM     20  H   UNL     1      16.417   2.233  18.297  1.00  0.00     0.194 HD
ENDBRANCH   8   9
ENDBRANCH   1   8
BRANCH   5  21
ATOM     21  C   UNL     1      17.586  -0.743  14.692  1.00  0.00     0.256 C 
ATOM     22  O   UNL     1      16.637  -0.185  14.099  1.00  0.00    -0.269 OA
ATOM     23  N   UNL     1      17.454  -2.080  15.111  1.00  0.00    -0.335 N 
ATOM     24  C   UNL     1      16.209  -2.780  14.848  1.00  0.00     0.141 C 
ATOM     25  C   UNL     1      18.564  -2.716  15.787  1.00  0.00     0.141 C 
ATOM     26  C   UNL     1      16.274  -4.127  15.610  1.00  0.00     0.141 C 
ATOM     27  C   UNL     1      18.718  -4.163  15.395  1.00  0.00     0.141 C 
ATOM     28  N   UNL     1      17.417  -4.795  15.082  1.00  0.00    -0.339 N 
ATOM     29  C   UNL     1      17.347  -5.967  14.322  1.00  0.00     0.225 C 
ATOM     30  O   UNL     1      18.451  -6.490  13.882  1.00  0.00    -0.275 OA
BRANCH  29  31
ATOM     31  C   UNL     1      16.068  -6.627  14.008  1.00  0.00     0.079 C 
ATOM     32  C   UNL     1      15.412  -6.410  12.689  1.00  0.00     0.014 C 
ATOM     33  C   UNL     1      16.232  -7.674  12.881  1.00  0.00     0.014 C 
ENDBRANCH  29  31
ENDBRANCH   5  21
TORSDOF 4
ENDMDL
MODEL 5
REMARK VINA RESULT:   -11.697      1.909      2.398
REMARK INTER + INTRA:         -14.491
REMARK INTER:                 -15.004
REMARK INTRA:                   0.513
REMARK UNBOUND:                -0.059
REMARK SMILES O=C(c1cc(Cc2n[nH]c(=O)c3ccccc23)ccc1F)N1CCN(C(=O)C2CC2)CC1
REMARK SMILES IDX 5 1 18 2 19 3 20 4 3 5 4 6 21 7 6 8 7 9 15 10 14 11 16 12
REMARK SMILES IDX 13 13 17 14 12 15 10 16 8 17 9 18 11 19 2 21 1 22 22 23
REMARK SMILES IDX 23 24 32 25 24 26 31 27 25 28 26 29 27 30 28 31 29 32 30 33
REMARK H PARENT 9 20
REMARK Flexibility Score: inf
ROOT
ATOM      1  C   UNL     1      21.502   0.475  17.624  1.00  0.00    -0.041 A 
ATOM      2  C   UNL     1      22.767   0.020  17.381  1.00  0.00     0.007 A 
ATOM      3  C   UNL     1      22.990  -1.346  17.173  1.00  0.00     0.040 A 
ATOM      4  C   UNL     1      21.945  -2.251  17.208  1.00  0.00     0.135 A 
ATOM      5  C   UNL     1      20.657  -1.806  17.452  1.00  0.00     0.076 A 
ATOM      6  C   UNL     1      20.471  -0.480  17.651  1.00  0.00     0.021 A 
ATOM      7  F   UNL     1      22.170  -3.568  17.006  1.00  0.00    -0.206 F 
ENDROOT
BRANCH   1   8
ATOM      8  C   UNL     1      21.149   1.896  17.833  1.00  0.00     0.094 C 
BRANCH   8   9
ATOM      9  C   UNL     1      20.993   2.219  19.263  1.00  0.00     0.073 A 
ATOM     10  C   UNL     1      17.371   2.188  19.760  1.00  0.00     0.001 A 
ATOM     11  C   UNL     1      17.247   2.535  21.093  1.00  0.00     0.001 A 
ATOM     12  C   UNL     1      18.592   2.086  19.146  1.00  0.00     0.011 A 
ATOM     13  C   UNL     1      18.381   2.789  21.831  1.00  0.00     0.014 A 
ATOM     14  C   UNL     1      19.739   2.332  19.856  1.00  0.00     0.011 A 
ATOM     15  C   UNL     1      19.610   2.679  21.187  1.00  0.00     0.050 A 
ATOM     16  C   UNL     1      20.783   2.903  21.890  1.00  0.00     0.272 A 
ATOM     17  N   UNL     1      22.076   2.460  20.048  1.00  0.00    -0.177 NA
ATOM     18  N   UNL     1      21.989   2.792  21.317  1.00  0.00    -0.243 N 
ATOM     19  O   UNL     1      20.689   3.215  23.084  1.00  0.00    -0.267 OA
ATOM     20  H   UNL     1      22.859   2.976  21.906  1.00  0.00     0.194 HD
ENDBRANCH   8   9
ENDBRANCH   1   8
BRANCH   5  21
ATOM     21  C   UNL     1      19.593  -2.818  17.467  1.00  0.00     0.256 C 
ATOM     22  O   UNL     1      19.335  -3.389  18.549  1.00  0.00    -0.269 OA
ATOM     23  N   UNL     1      18.865  -3.159  16.311  1.00  0.00    -0.335 N 
ATOM     24  C   UNL     1      17.833  -4.175  16.403  1.00  0.00     0.141 C 
ATOM     25  C   UNL     1      19.169  -2.484  15.067  1.00  0.00     0.141 C 
ATOM     26  C   UNL     1      17.374  -4.493  14.958  1.00  0.00     0.141 C 
ATOM     27  C   UNL     1      17.932  -2.210  14.251  1.00  0.00     0.141 C 
ATOM     28  N   UNL     1      16.899  -3.252  14.441  1.00  0.00    -0.339 N 
ATOM     29  C   UNL     1      15.558  -3.008  14.124  1.00  0.00     0.225 C 
ATOM     30  O   UNL     1      15.231  -1.838  13.666  1.00  0.00    -0.275 OA
BRANCH  29  31
ATOM     31  C   UNL     1      14.511  -4.030  14.288  1.00  0.00     0.079 C 
ATOM     32  C   UNL     1      14.850  -5.376  14.826  1.00  0.00     0.014 C 
ATOM     33  C   UNL     1      14.261  -4.350  15.780  1.00  0.00     0.014 C 
ENDBRANCH  29  31
ENDBRANCH   5  21
TORSDOF 4
ENDMDL
MODEL 6
REMARK VINA RESULT:   -11.422      2.785      3.775
REMARK INTER + INTRA:         -14.152
REMARK INTER:                 -15.344
REMARK INTRA:                   1.192
REMARK UNBOUND:                -0.059
REMARK SMILES O=C(c1cc(Cc2n[nH]c(=O)c3ccccc23)ccc1F)N1CCN(C(=O)C2CC2)CC1
REMARK SMILES IDX 5 1 18 2 19 3 20 4 3 5 4 6 21 7 6 8 7 9 15 10 14 11 16 12
REMARK SMILES IDX 13 13 17 14 12 15 10 16 8 17 9 18 11 19 2 21 1 22 22 23
REMARK SMILES IDX 23 24 32 25 24 26 31 27 25 28 26 29 27 30 28 31 29 32 30 33
REMARK H PARENT 9 20
REMARK Flexibility Score: inf
ROOT
ATOM      1  C   UNL     1      18.728   1.148  16.301  1.00  0.00    -0.041 A 
ATOM      2  C   UNL     1      19.828   1.482  15.561  1.00  0.00     0.007 A 
ATOM      3  C   UNL     1      19.933   1.051  14.233  1.00  0.00     0.040 A 
ATOM      4  C   UNL     1      18.937   0.287  13.652  1.00  0.00     0.135 A 
ATOM      5  C   UNL     1      17.817  -0.060  14.388  1.00  0.00     0.076 A 
ATOM      6  C   UNL     1      17.742   0.371  15.669  1.00  0.00     0.021 A 
ATOM      7  F   UNL     1      19.049  -0.125  12.370  1.00  0.00    -0.206 F 
ENDROOT
BRANCH   1   8
ATOM      8  C   UNL     1      18.502   1.569  17.700  1.00  0.00     0.094 C 
BRANCH   8   9
ATOM      9  C   UNL     1      19.764   1.893  18.387  1.00  0.00     0.073 A 
ATOM     10  C   UNL     1      18.708   2.689  21.795  1.00  0.00     0.001 A 
ATOM     11  C   UNL     1      19.900   3.032  22.408  1.00  0.00     0.001 A 
ATOM     12  C   UNL     1      18.648   2.319  20.477  1.00  0.00     0.011 A 
ATOM     13  C   UNL     1      21.066   3.005  21.676  1.00  0.00     0.014 A 
ATOM     14  C   UNL     1      19.793   2.282  19.723  1.00  0.00     0.011 A 
ATOM     15  C   UNL     1      20.981   2.626  20.339  1.00  0.00     0.050 A 
ATOM     16  C   UNL     1      22.128   2.560  19.563  1.00  0.00     0.272 A 
ATOM     17  N   UNL     1      20.950   1.864  17.723  1.00  0.00    -0.177 NA
ATOM     18  N   UNL     1      22.098   2.184  18.278  1.00  0.00    -0.243 N 
ATOM     19  O   UNL     1      23.203   2.865  20.098  1.00  0.00    -0.267 OA
ATOM     20  H   UNL     1      23.011   2.152  17.728  1.00  0.00     0.194 HD
ENDBRANCH   8   9
ENDBRANCH   1   8
BRANCH   5  21
ATOM     21  C   UNL     1      16.795  -0.864  13.707  1.00  0.00     0.256 C 
ATOM     22  O   UNL     1      16.150  -0.335  12.775  1.00  0.00    -0.269 OA
ATOM     23  N   UNL     1      16.526  -2.198  14.069  1.00  0.00    -0.335 N 
ATOM     24  C   UNL     1      15.496  -2.927  13.352  1.00  0.00     0.141 C 
ATOM     25  C   UNL     1      17.287  -2.801  15.142  1.00  0.00     0.141 C 
ATOM     26  C   UNL     1      15.271  -4.262  14.107  1.00  0.00     0.141 C 
ATOM     27  C   UNL     1      17.602  -4.249  14.874  1.00  0.00     0.141 C 
ATOM     28  N   UNL     1      16.539  -4.913  14.088  1.00  0.00    -0.339 N 
ATOM     29  C   UNL     1      16.791  -6.098  13.388  1.00  0.00     0.225 C 
ATOM     30  O   UNL     1      17.985  -6.604  13.430  1.00  0.00    -0.275 OA
BRANCH  29  31
ATOM     31  C   UNL     1      15.749  -6.789  12.609  1.00  0.00     0.079 C 
ATOM     32  C   UNL     1      15.358  -6.288  11.263  1.00  0.00     0.014 C 
ATOM     33  C   UNL     1      16.334  -7.449  11.339  1.00  0.00     0.014 C 
ENDBRANCH  29  31
ENDBRANCH   5  21
TORSDOF 4
ENDMDL
MODEL 7
REMARK VINA RESULT:   -11.351      2.875      3.884
REMARK INTER + INTRA:         -14.064
REMARK INTER:                 -14.515
REMARK INTRA:                   0.451
REMARK UNBOUND:                -0.059
REMARK SMILES O=C(c1cc(Cc2n[nH]c(=O)c3ccccc23)ccc1F)N1CCN(C(=O)C2CC2)CC1
REMARK SMILES IDX 5 1 18 2 19 3 20 4 3 5 4 6 21 7 6 8 7 9 15 10 14 11 16 12
REMARK SMILES IDX 13 13 17 14 12 15 10 16 8 17 9 18 11 19 2 21 1 22 22 23
REMARK SMILES IDX 23 24 32 25 24 26 31 27 25 28 26 29 27 30 28 31 29 32 30 33
REMARK H PARENT 9 20
REMARK Flexibility Score: inf
ROOT
ATOM      1  C   UNL     1      19.021   1.340  14.827  1.00  0.00    -0.041 A 
ATOM      2  C   UNL     1      18.712   2.557  14.288  1.00  0.00     0.007 A 
ATOM      3  C   UNL     1      17.852   2.635  13.186  1.00  0.00     0.040 A 
ATOM      4  C   UNL     1      17.306   1.493  12.628  1.00  0.00     0.135 A 
ATOM      5  C   UNL     1      17.609   0.253  13.162  1.00  0.00     0.076 A 
ATOM      6  C   UNL     1      18.443   0.208  14.228  1.00  0.00     0.021 A 
ATOM      7  F   UNL     1      16.478   1.579  11.564  1.00  0.00    -0.206 F 
ENDROOT
BRANCH   1   8
ATOM      8  C   UNL     1      19.896   1.143  16.003  1.00  0.00     0.094 C 
BRANCH   8   9
ATOM      9  C   UNL     1      19.247   1.585  17.250  1.00  0.00     0.073 A 
ATOM     10  C   UNL     1      22.058   2.311  19.471  1.00  0.00     0.001 A 
ATOM     11  C   UNL     1      21.426   2.680  20.646  1.00  0.00     0.001 A 
ATOM     12  C   UNL     1      21.356   1.944  18.353  1.00  0.00     0.011 A 
ATOM     13  C   UNL     1      20.051   2.680  20.700  1.00  0.00     0.014 A 
ATOM     14  C   UNL     1      19.985   1.935  18.377  1.00  0.00     0.011 A 
ATOM     15  C   UNL     1      19.359   2.304  19.552  1.00  0.00     0.050 A 
ATOM     16  C   UNL     1      17.973   2.308  19.545  1.00  0.00     0.272 A 
ATOM     17  N   UNL     1      17.892   1.625  17.358  1.00  0.00    -0.177 NA
ATOM     18  N   UNL     1      17.265   1.971  18.460  1.00  0.00    -0.243 N 
ATOM     19  O   UNL     1      17.393   2.635  20.590  1.00  0.00    -0.267 OA
ATOM     20  H   UNL     1      16.199   1.991  18.512  1.00  0.00     0.194 HD
ENDBRANCH   8   9
ENDBRANCH   1   8
BRANCH   5  21
ATOM     21  C   UNL     1      16.988  -0.916  12.527  1.00  0.00     0.256 C 
ATOM     22  O   UNL     1      17.080  -1.034  11.286  1.00  0.00    -0.269 OA
ATOM     23  N   UNL     1      16.299  -1.896  13.268  1.00  0.00    -0.335 N 
ATOM     24  C   UNL     1      15.706  -3.021  12.568  1.00  0.00     0.141 C 
ATOM     25  C   UNL     1      16.207  -1.752  14.706  1.00  0.00     0.141 C 
ATOM     26  C   UNL     1      14.840  -3.792  13.595  1.00  0.00     0.141 C 
ATOM     27  C   UNL     1      16.315  -3.074  15.419  1.00  0.00     0.141 C 
ATOM     28  N   UNL     1      15.747  -4.183  14.622  1.00  0.00    -0.339 N 
ATOM     29  C   UNL     1      16.093  -5.514  14.885  1.00  0.00     0.225 C 
ATOM     30  O   UNL     1      16.936  -5.760  15.840  1.00  0.00    -0.275 OA
BRANCH  29  31
ATOM     31  C   UNL     1      15.532  -6.640  14.118  1.00  0.00     0.079 C 
ATOM     32  C   UNL     1      15.841  -6.793  12.670  1.00  0.00     0.014 C 
ATOM     33  C   UNL     1      16.636  -7.622  13.663  1.00  0.00     0.014 C 
ENDBRANCH  29  31
ENDBRANCH   5  21
TORSDOF 4
ENDMDL
MODEL 8
REMARK VINA RESULT:   -11.184      4.664     11.243
REMARK INTER + INTRA:         -13.859
REMARK INTER:                 -13.307
REMARK INTRA:                  -0.552
REMARK UNBOUND:                -0.059
REMARK SMILES O=C(c1cc(Cc2n[nH]c(=O)c3ccccc23)ccc1F)N1CCN(C(=O)C2CC2)CC1
REMARK SMILES IDX 5 1 18 2 19 3 20 4 3 5 4 6 21 7 6 8 7 9 15 10 14 11 16 12
REMARK SMILES IDX 13 13 17 14 12 15 10 16 8 17 9 18 11 19 2 21 1 22 22 23
REMARK SMILES IDX 23 24 32 25 24 26 31 27 25 28 26 29 27 30 28 31 29 32 30 33
REMARK H PARENT 9 20
REMARK Flexibility Score: inf
ROOT
ATOM      1  C   UNL     1      16.564  -6.404  13.012  1.00  0.00    -0.041 A 
ATOM      2  C   UNL     1      15.746  -7.027  13.912  1.00  0.00     0.007 A 
ATOM      3  C   UNL     1      15.049  -6.271  14.861  1.00  0.00     0.040 A 
ATOM      4  C   UNL     1      15.173  -4.894  14.906  1.00  0.00     0.135 A 
ATOM      5  C   UNL     1      15.998  -4.248  14.001  1.00  0.00     0.076 A 
ATOM      6  C   UNL     1      16.660  -5.005  13.094  1.00  0.00     0.021 A 
ATOM      7  F   UNL     1      14.497  -4.174  15.827  1.00  0.00    -0.206 F 
ENDROOT
BRANCH   1   8
ATOM      8  C   UNL     1      17.326  -7.100  11.952  1.00  0.00     0.094 C 
BRANCH   8   9
ATOM      9  C   UNL     1      16.440  -7.827  11.026  1.00  0.00     0.073 A 
ATOM     10  C   UNL     1      17.891 -11.180  10.905  1.00  0.00     0.001 A 
ATOM     11  C   UNL     1      17.072 -11.830   9.999  1.00  0.00     0.001 A 
ATOM     12  C   UNL     1      17.699  -9.867  11.247  1.00  0.00     0.011 A 
ATOM     13  C   UNL     1      16.031 -11.142   9.417  1.00  0.00     0.014 A 
ATOM     14  C   UNL     1      16.670  -9.157  10.684  1.00  0.00     0.011 A 
ATOM     15  C   UNL     1      15.855  -9.810   9.779  1.00  0.00     0.050 A 
ATOM     16  C   UNL     1      14.809  -9.077   9.240  1.00  0.00     0.272 A 
ATOM     17  N   UNL     1      15.384  -7.207  10.436  1.00  0.00    -0.177 NA
ATOM     18  N   UNL     1      14.590  -7.799   9.572  1.00  0.00    -0.243 N 
ATOM     19  O   UNL     1      14.068  -9.645   8.427  1.00  0.00    -0.267 OA
ATOM     20  H   UNL     1      13.769  -7.283   9.125  1.00  0.00     0.194 HD
ENDBRANCH   8   9
ENDBRANCH   1   8
BRANCH   5  21
ATOM     21  C   UNL     1      16.077  -2.785  14.098  1.00  0.00     0.256 C 
ATOM     22  O   UNL     1      15.113  -2.111  13.673  1.00  0.00    -0.269 OA
ATOM     23  N   UNL     1      17.194  -2.129  14.651  1.00  0.00    -0.335 N 
ATOM     24  C   UNL     1      17.201  -0.679  14.707  1.00  0.00     0.141 C 
ATOM     25  C   UNL     1      18.298  -2.922  15.147  1.00  0.00     0.141 C 
ATOM     26  C   UNL     1      18.623  -0.246  15.144  1.00  0.00     0.141 C 
ATOM     27  C   UNL     1      18.903  -2.337  16.396  1.00  0.00     0.141 C 
ATOM     28  N   UNL     1      18.820  -0.860  16.414  1.00  0.00    -0.339 N 
ATOM     29  C   UNL     1      18.936  -0.144  17.611  1.00  0.00     0.225 C 
ATOM     30  O   UNL     1      19.106  -0.803  18.717  1.00  0.00    -0.275 OA
BRANCH  29  31
ATOM     31  C   UNL     1      18.873   1.327  17.658  1.00  0.00     0.079 C 
ATOM     32  C   UNL     1      19.070   2.049  18.945  1.00  0.00     0.014 C 
ATOM     33  C   UNL     1      20.251   1.943  17.995  1.00  0.00     0.014 C 
ENDBRANCH  29  31
ENDBRANCH   5  21
TORSDOF 4
ENDMDL
MODEL 9
REMARK VINA RESULT:   -11.181      3.674      5.972
REMARK INTER + INTRA:         -13.855
REMARK INTER:                 -13.113
REMARK INTRA:                  -0.742
REMARK UNBOUND:                -0.059
REMARK SMILES O=C(c1cc(Cc2n[nH]c(=O)c3ccccc23)ccc1F)N1CCN(C(=O)C2CC2)CC1
REMARK SMILES IDX 5 1 18 2 19 3 20 4 3 5 4 6 21 7 6 8 7 9 15 10 14 11 16 12
REMARK SMILES IDX 13 13 17 14 12 15 10 16 8 17 9 18 11 19 2 21 1 22 22 23
REMARK SMILES IDX 23 24 32 25 24 26 31 27 25 28 26 29 27 30 28 31 29 32 30 33
REMARK H PARENT 9 20
REMARK Flexibility Score: inf
ROOT
ATOM      1  C   UNL     1      19.605  -3.180  16.419  1.00  0.00    -0.041 A 
ATOM      2  C   UNL     1      18.920  -3.187  17.602  1.00  0.00     0.007 A 
ATOM      3  C   UNL     1      17.531  -3.360  17.603  1.00  0.00     0.040 A 
ATOM      4  C   UNL     1      16.834  -3.526  16.420  1.00  0.00     0.135 A 
ATOM      5  C   UNL     1      17.514  -3.522  15.214  1.00  0.00     0.076 A 
ATOM      6  C   UNL     1      18.856  -3.352  15.243  1.00  0.00     0.021 A 
ATOM      7  F   UNL     1      15.493  -3.692  16.431  1.00  0.00    -0.206 F 
ENDROOT
BRANCH   1   8
ATOM      8  C   UNL     1      21.072  -3.030  16.303  1.00  0.00     0.094 C 
BRANCH   8   9
ATOM      9  C   UNL     1      21.442  -1.802  15.577  1.00  0.00     0.073 A 
ATOM     10  C   UNL     1      21.721   0.708  18.220  1.00  0.00     0.001 A 
ATOM     11  C   UNL     1      22.024   1.858  17.513  1.00  0.00     0.001 A 
ATOM     12  C   UNL     1      21.522  -0.497  17.598  1.00  0.00     0.011 A 
ATOM     13  C   UNL     1      22.130   1.797  16.142  1.00  0.00     0.014 A 
ATOM     14  C   UNL     1      21.621  -0.588  16.234  1.00  0.00     0.011 A 
ATOM     15  C   UNL     1      21.924   0.563  15.531  1.00  0.00     0.050 A 
ATOM     16  C   UNL     1      22.041   0.442  14.156  1.00  0.00     0.272 A 
ATOM     17  N   UNL     1      21.581  -1.804  14.224  1.00  0.00    -0.177 NA
ATOM     18  N   UNL     1      21.869  -0.728  13.526  1.00  0.00    -0.243 N 
ATOM     19  O   UNL     1      22.312   1.463  13.509  1.00  0.00    -0.267 OA
ATOM     20  H   UNL     1      21.970  -0.762  12.465  1.00  0.00     0.194 HD
ENDBRANCH   8   9
ENDBRANCH   1   8
BRANCH   5  21
ATOM     21  C   UNL     1      16.714  -3.712  13.997  1.00  0.00     0.256 C 
ATOM     22  O   UNL     1      16.206  -2.704  13.460  1.00  0.00    -0.269 OA
ATOM     23  N   UNL     1      16.505  -4.983  13.427  1.00  0.00    -0.335 N 
ATOM     24  C   UNL     1      15.697  -5.091  12.226  1.00  0.00     0.141 C 
ATOM     25  C   UNL     1      17.106  -6.140  14.055  1.00  0.00     0.141 C 
ATOM     26  C   UNL     1      15.460  -6.600  11.970  1.00  0.00     0.141 C 
ATOM     27  C   UNL     1      17.597  -7.145  13.046  1.00  0.00     0.141 C 
ATOM     28  N   UNL     1      16.764  -7.158  11.823  1.00  0.00    -0.339 N 
ATOM     29  C   UNL     1      17.248  -7.690  10.623  1.00  0.00     0.225 C 
ATOM     30  O   UNL     1      18.455  -8.167  10.597  1.00  0.00    -0.275 OA
BRANCH  29  31
ATOM     31  C   UNL     1      16.436  -7.730   9.395  1.00  0.00     0.079 C 
ATOM     32  C   UNL     1      16.763  -8.692   8.307  1.00  0.00     0.014 C 
ATOM     33  C   UNL     1      15.653  -9.058   9.276  1.00  0.00     0.014 C 
ENDBRANCH  29  31
ENDBRANCH   5  21
TORSDOF 4
ENDMDL
MODEL 10
REMARK VINA RESULT:   -11.054      2.970      5.022
REMARK INTER + INTRA:         -13.698
REMARK INTER:                 -13.919
REMARK INTRA:                   0.221
REMARK UNBOUND:                -0.059
REMARK SMILES O=C(c1cc(Cc2n[nH]c(=O)c3ccccc23)ccc1F)N1CCN(C(=O)C2CC2)CC1
REMARK SMILES IDX 5 1 18 2 19 3 20 4 3 5 4 6 21 7 6 8 7 9 15 10 14 11 16 12
REMARK SMILES IDX 13 13 17 14 12 15 10 16 8 17 9 18 11 19 2 21 1 22 22 23
REMARK SMILES IDX 23 24 32 25 24 26 31 27 25 28 26 29 27 30 28 31 29 32 30 33
REMARK H PARENT 9 20
REMARK Flexibility Score: inf
ROOT
ATOM      1  C   UNL     1      18.600  -0.809  16.252  1.00  0.00    -0.041 A 
ATOM      2  C   UNL     1      18.949   0.192  15.390  1.00  0.00     0.007 A 
ATOM      3  C   UNL     1      18.382   0.241  14.111  1.00  0.00     0.040 A 
ATOM      4  C   UNL     1      17.467  -0.713  13.701  1.00  0.00     0.135 A 
ATOM      5  C   UNL     1      17.102  -1.732  14.564  1.00  0.00     0.076 A 
ATOM      6  C   UNL     1      17.667  -1.755  15.794  1.00  0.00     0.021 A 
ATOM      7  F   UNL     1      16.926  -0.657  12.465  1.00  0.00    -0.206 F 
ENDROOT
BRANCH   1   8
ATOM      8  C   UNL     1      19.117  -0.943  17.632  1.00  0.00     0.094 C 
BRANCH   8   9
ATOM      9  C   UNL     1      20.132   0.079  17.939  1.00  0.00     0.073 A 
ATOM     10  C   UNL     1      23.265  -1.476  16.875  1.00  0.00     0.001 A 
ATOM     11  C   UNL     1      24.206  -0.520  17.214  1.00  0.00     0.001 A 
ATOM     12  C   UNL     1      21.928  -1.295  17.113  1.00  0.00     0.011 A 
ATOM     13  C   UNL     1      23.793   0.651  17.808  1.00  0.00     0.014 A 
ATOM     14  C   UNL     1      21.487  -0.139  17.703  1.00  0.00     0.011 A 
ATOM     15  C   UNL     1      22.430   0.813  18.039  1.00  0.00     0.050 A 
ATOM     16  C   UNL     1      21.958   1.982  18.615  1.00  0.00     0.272 A 
ATOM     17  N   UNL     1      19.783   1.263  18.509  1.00  0.00    -0.177 NA
ATOM     18  N   UNL     1      20.655   2.190  18.840  1.00  0.00    -0.243 N 
ATOM     19  O   UNL     1      22.789   2.848  18.923  1.00  0.00    -0.267 OA
ATOM     20  H   UNL     1      20.348   3.109  19.287  1.00  0.00     0.194 HD
ENDBRANCH   8   9
ENDBRANCH   1   8
BRANCH   5  21
ATOM     21  C   UNL     1      16.120  -2.705  14.068  1.00  0.00     0.256 C 
ATOM     22  O   UNL     1      15.088  -2.271  13.511  1.00  0.00    -0.269 OA
ATOM     23  N   UNL     1      16.306  -4.094  14.202  1.00  0.00    -0.335 N 
ATOM     24  C   UNL     1      15.287  -4.993  13.692  1.00  0.00     0.141 C 
ATOM     25  C   UNL     1      17.510  -4.582  14.841  1.00  0.00     0.141 C 
ATOM     26  C   UNL     1      15.651  -6.418  14.176  1.00  0.00     0.141 C 
ATOM     27  C   UNL     1      18.034  -5.834  14.188  1.00  0.00     0.141 C 
ATOM     28  N   UNL     1      16.946  -6.671  13.637  1.00  0.00    -0.339 N 
ATOM     29  C   UNL     1      17.202  -7.637  12.658  1.00  0.00     0.225 C 
ATOM     30  O   UNL     1      18.419  -7.781  12.228  1.00  0.00    -0.275 OA
BRANCH  29  31
ATOM     31  C   UNL     1      16.141  -8.496  12.101  1.00  0.00     0.079 C 
ATOM     32  C   UNL     1      16.430  -9.403  10.957  1.00  0.00     0.014 C 
ATOM     33  C   UNL     1      16.432  -9.993  12.357  1.00  0.00     0.014 C 
ENDBRANCH  29  31
ENDBRANCH   5  21
TORSDOF 4
ENDMDL
