MODEL 1
REMARK VINA RESULT:   -10.551      0.000      0.000
REMARK INTER + INTRA:         -42.435
REMARK INTER:                 -34.297
REMARK INTRA:                  -8.138
REMARK UNBOUND:                -8.138
REMARK SMILES Cc1cc(C(=O)N[C@H](CNC(=O)c2cccc(COc3ccccc3C(N)=O)c2)C(=O)NCCCCCCCCCCCC([C@]23C[C@]4(S(=O)(=O)O)C[C@](S(=O)(=O)O)(C2)C[C@](S(=O)(=O)O)(C3)C4)([C@]23C[C@]4(S(=O)(=O)O)C[C@](S(=O)(=O)O)(C2)C[C@](S(=O)(=O)O)(C3)C4)[C@]23C[C@]4(S(=O)(=O)O)C[C@](S(=O)(=O)O)(C2)C[C@](S(=O)(=O)O)(C3)C4)[nH]n1
REMARK SMILES IDX 35 1 34 2 33 3 32 4 30 5 31 6 8 8 9 9 10 10 12 11 11 12
REMARK SMILES IDX 13 14 14 15 29 16 15 17 17 18 16 19 18 20 19 21 20 22 25 23
REMARK SMILES IDX 21 24 24 25 22 26 23 27 26 28 27 29 28 30 7 33 5 34 6 36
REMARK SMILES IDX 4 37 3 38 111 39 2 40 112 41 1 43 36 44 37 45 38 46 39 47
REMARK SMILES IDX 40 48 41 49 42 50 43 51 44 52 67 53 80 54 87 55 68 56 75 57
REMARK SMILES IDX 82 58 69 59 81 60 74 61 88 62 76 63 77 64 78 65 79 66 83 68
REMARK SMILES IDX 84 69 85 70 86 71 70 73 71 74 72 75 73 76 45 78 46 79 58 80
REMARK SMILES IDX 65 81 47 82 53 83 60 84 52 85 66 86 59 87 48 88 49 89 50 90
REMARK SMILES IDX 51 91 54 93 55 94 56 95 57 96 61 98 62 99 63 100 64 101
REMARK SMILES IDX 89 103 102 104 109 105 90 106 97 107 104 108 91 109 103 110
REMARK SMILES IDX 96 111 110 112 98 113 99 114 100 115 101 116 105 118 106 119
REMARK SMILES IDX 107 120 108 121 92 123 93 124 94 125 95 126
REMARK H PARENT 32 7 10 13 27 31 27 32 7 35 111 42 79 67 86 72 73 77 51 92
REMARK H PARENT 57 97 64 102 101 117 108 122 95 127
REMARK Flexibility Score: inf
ROOT
ATOM      1  C   UNL     1      22.011  -1.881  16.080  1.00  0.00     0.002 C 
ENDROOT
BRANCH   1   2
ATOM      2  C   UNL     1      20.717  -2.472  16.517  1.00  0.00     0.021 C 
BRANCH   2   3
ATOM      3  C   UNL     1      20.244  -3.615  15.677  1.00  0.00     0.116 C 
BRANCH   3   4
ATOM      4  N   UNL     1      19.038  -3.418  14.976  1.00  0.00    -0.354 N 
ATOM      5  C   UNL     1      17.699  -3.319  15.344  1.00  0.00     0.244 C 
ATOM      6  O   UNL     1      17.349  -3.393  16.556  1.00  0.00    -0.273 OA
ATOM      7  H   UNL     1      19.177  -3.318  13.892  1.00  0.00     0.163 HD
BRANCH   5   8
ATOM      8  C   UNL     1      16.548  -3.125  14.429  1.00  0.00     0.191 C 
BRANCH   8   9
ATOM      9  C   UNL     1      16.487  -1.754  13.863  1.00  0.00     0.151 C 
BRANCH   9  10
ATOM     10  N   UNL     1      17.750  -1.075  14.172  1.00  0.00    -0.349 N 
ATOM     11  O   UNL     1      16.807   0.962  14.762  1.00  0.00    -0.269 OA
ATOM     12  C   UNL     1      17.794   0.238  14.601  1.00  0.00     0.251 C 
ATOM     13  H   UNL     1      18.644  -1.656  14.048  1.00  0.00     0.163 HD
BRANCH  12  14
ATOM     14  C   UNL     1      19.114   0.847  14.884  1.00  0.00     0.040 A 
ATOM     15  C   UNL     1      19.928   1.307  13.883  1.00  0.00     0.014 A 
ATOM     16  C   UNL     1      19.481   0.944  16.205  1.00  0.00     0.021 A 
ATOM     17  C   UNL     1      21.151   1.882  14.210  1.00  0.00     0.001 A 
ATOM     18  C   UNL     1      20.704   1.518  16.541  1.00  0.00    -0.010 A 
ATOM     19  C   UNL     1      21.522   1.978  15.542  1.00  0.00     0.007 A 
BRANCH  18  20
ATOM     20  C   UNL     1      21.033   1.610  17.974  1.00  0.00     0.265 C 
BRANCH  20  21
ATOM     21  O   UNL     1      20.012   2.090  18.751  1.00  0.00    -0.488 OA
BRANCH  21  22
ATOM     22  C   UNL     1      20.070   2.567  20.016  1.00  0.00     0.132 A 
ATOM     23  C   UNL     1      18.866   2.747  20.693  1.00  0.00     0.081 A 
ATOM     24  C   UNL     1      21.201   2.893  20.705  1.00  0.00     0.047 A 
ATOM     25  C   UNL     1      18.827   3.219  21.972  1.00  0.00     0.018 A 
ATOM     26  C   UNL     1      21.178   3.370  21.992  1.00  0.00     0.004 A 
ATOM     27  C   UNL     1      19.969   3.544  22.658  1.00  0.00     0.001 A 
BRANCH  23  28
ATOM     28  C   UNL     1      17.610   2.436  19.979  1.00  0.00     0.252 C 
ATOM     29  N   UNL     1      17.606   2.293  18.568  1.00  0.00    -0.365 N 
ATOM     30  O   UNL     1      16.580   2.317  20.656  1.00  0.00    -0.269 OA
ATOM     31  H   UNL     1      17.612   3.197  18.011  1.00  0.00     0.159 HD
ATOM     32  H   UNL     1      17.597   1.385  18.089  1.00  0.00     0.159 HD
ENDBRANCH  23  28
ENDBRANCH  21  22
ENDBRANCH  20  21
ENDBRANCH  18  20
ENDBRANCH  12  14
ENDBRANCH   9  10
ENDBRANCH   8   9
BRANCH   8  33
ATOM     33  N   UNL     1      16.641  -4.171  13.432  1.00  0.00    -0.337 N 
ATOM     34  C   UNL     1      15.551  -4.972  13.084  1.00  0.00     0.270 C 
ATOM     35  H   UNL     1      17.571  -4.305  12.967  1.00  0.00     0.164 HD
ATOM     36  O   UNL     1      14.406  -4.873  13.592  1.00  0.00    -0.268 OA
BRANCH  34  37
ATOM     37  C   UNL     1      15.753  -6.006  12.039  1.00  0.00     0.123 A 
ATOM     38  C   UNL     1      16.730  -6.969  12.017  1.00  0.00     0.058 A 
ATOM     39  N   UNL     1      15.005  -6.179  10.939  1.00  0.00    -0.273 N 
ATOM     40  C   UNL     1      16.545  -7.732  10.863  1.00  0.00     0.060 A 
ATOM     41  N   UNL     1      15.475  -7.189  10.256  1.00  0.00    -0.180 NA
ATOM     42  H   UNL     1      14.180  -5.607  10.661  1.00  0.00     0.190 HD
ATOM     43  C   UNL     1      17.341  -8.900  10.394  1.00  0.00     0.069 C 
ENDBRANCH  34  37
ENDBRANCH   8  33
ENDBRANCH   5   8
ENDBRANCH   3   4
ENDBRANCH   2   3
ENDBRANCH   1   2
BRANCH   1  44
ATOM     44  C   UNL     1      22.854  -1.296  17.137  1.00  0.00     0.000 C 
BRANCH  44  45
ATOM     45  C   UNL     1      24.036  -0.508  16.834  1.00  0.00     0.000 C 
BRANCH  45  46
ATOM     46  C   UNL     1      24.487   0.671  17.532  1.00  0.00     0.000 C 
BRANCH  46  47
ATOM     47  C   UNL     1      25.106   1.761  16.719  1.00  0.00     0.000 C 
BRANCH  47  48
ATOM     48  C   UNL     1      24.911   3.029  17.562  1.00  0.00     0.000 C 
BRANCH  48  49
ATOM     49  C   UNL     1      25.148   4.253  16.793  1.00  0.00     0.000 C 
BRANCH  49  50
ATOM     50  C   UNL     1      25.763   5.393  17.725  1.00  0.00     0.001 C 
BRANCH  50  51
ATOM     51  C   UNL     1      25.482   6.661  17.238  1.00  0.00     0.009 C 
BRANCH  51  52
ATOM     52  C   UNL     1      25.947   8.028  16.896  1.00  0.00    -0.012 C 
BRANCH  52  53
ATOM     53  C   UNL     1      24.683   8.908  16.788  1.00  0.00    -0.018 C 
ATOM     54  C   UNL     1      24.819  10.344  16.626  1.00  0.00     0.033 C 
ATOM     55  C   UNL     1      23.627   8.428  15.896  1.00  0.00     0.033 C 
ATOM     56  C   UNL     1      23.892   8.698  18.111  1.00  0.00     0.033 C 
ATOM     57  C   UNL     1      23.558  11.158  16.877  1.00  0.00     0.101 C 
ATOM     58  C   UNL     1      22.409   9.294  15.809  1.00  0.00     0.101 C 
ATOM     59  C   UNL     1      22.554   9.460  18.103  1.00  0.00     0.101 C 
ATOM     60  C   UNL     1      22.560  10.746  15.776  1.00  0.00     0.051 C 
ATOM     61  C   UNL     1      22.895  10.916  18.148  1.00  0.00     0.051 C 
ATOM     62  C   UNL     1      21.590   9.029  17.088  1.00  0.00     0.051 C 
BRANCH  57  63
ATOM     63  S   UNL     1      23.970  12.859  16.535  1.00  0.00     0.270 S 
ATOM     64  O   UNL     1      24.190  13.599  17.819  1.00  0.00    -0.199 OA
ATOM     65  O   UNL     1      22.814  13.537  15.832  1.00  0.00    -0.199 OA
BRANCH  63  66
ATOM     66  O   UNL     1      25.334  12.948  15.533  1.00  0.00    -0.285 OA
ATOM     67  H   UNL     1      25.540  12.003  15.264  1.00  0.00     0.234 HD
ENDBRANCH  63  66
ENDBRANCH  57  63
BRANCH  58  68
ATOM     68  S   UNL     1      21.352   8.770  14.479  1.00  0.00     0.270 S 
ATOM     69  O   UNL     1      21.920   7.510  13.855  1.00  0.00    -0.199 OA
ATOM     70  O   UNL     1      21.318   9.796  13.372  1.00  0.00    -0.199 OA
BRANCH  68  71
ATOM     71  O   UNL     1      19.784   8.522  15.006  1.00  0.00    -0.285 OA
ATOM     72  H   UNL     1      19.438   9.396  15.319  1.00  0.00     0.234 HD
ENDBRANCH  68  71
ENDBRANCH  58  68
BRANCH  59  73
ATOM     73  S   UNL     1      21.804   9.095  19.700  1.00  0.00     0.270 S 
ATOM     74  O   UNL     1      22.498   7.918  20.328  1.00  0.00    -0.199 OA
ATOM     75  O   UNL     1      21.942  10.249  20.646  1.00  0.00    -0.199 OA
BRANCH  73  76
ATOM     76  O   UNL     1      20.195   8.743  19.556  1.00  0.00    -0.285 OA
ATOM     77  H   UNL     1      19.630   9.527  19.621  1.00  0.00     0.234 HD
ENDBRANCH  73  76
ENDBRANCH  59  73
ENDBRANCH  52  53
BRANCH  52  78
ATOM     78  C   UNL     1      26.641   7.855  15.556  1.00  0.00    -0.018 C 
ATOM     79  C   UNL     1      28.075   7.339  15.676  1.00  0.00     0.033 C 
ATOM     80  C   UNL     1      27.092   9.173  14.943  1.00  0.00     0.033 C 
ATOM     81  C   UNL     1      26.138   6.862  14.621  1.00  0.00     0.033 C 
ATOM     82  C   UNL     1      28.784   7.236  14.317  1.00  0.00     0.101 C 
ATOM     83  C   UNL     1      27.663   9.068  13.550  1.00  0.00     0.101 C 
ATOM     84  C   UNL     1      26.754   6.935  13.200  1.00  0.00     0.101 C 
ATOM     85  C   UNL     1      29.055   8.525  13.657  1.00  0.00     0.051 C 
ATOM     86  C   UNL     1      28.144   6.344  13.321  1.00  0.00     0.051 C 
ATOM     87  C   UNL     1      26.748   8.299  12.666  1.00  0.00     0.051 C 
BRANCH  82  88
ATOM     88  S   UNL     1      30.381   6.513  14.704  1.00  0.00     0.270 S 
ATOM     89  O   UNL     1      31.251   7.536  15.408  1.00  0.00    -0.199 OA
ATOM     90  O   UNL     1      30.164   5.303  15.575  1.00  0.00    -0.199 OA
BRANCH  88  91
ATOM     91  O   UNL     1      31.100   6.057  13.275  1.00  0.00    -0.285 OA
ATOM     92  H   UNL     1      32.062   6.284  13.311  1.00  0.00     0.234 HD
ENDBRANCH  88  91
ENDBRANCH  82  88
BRANCH  83  93
ATOM     93  S   UNL     1      27.888  10.667  12.793  1.00  0.00     0.270 S 
ATOM     94  O   UNL     1      26.988  10.728  11.593  1.00  0.00    -0.199 OA
ATOM     95  O   UNL     1      29.286  10.868  12.317  1.00  0.00    -0.199 OA
BRANCH  93  96
ATOM     96  O   UNL     1      27.419  11.843  13.893  1.00  0.00    -0.285 OA
ATOM     97  H   UNL     1      27.134  12.636  13.372  1.00  0.00     0.234 HD
ENDBRANCH  93  96
ENDBRANCH  83  93
BRANCH  84  98
ATOM     98  S   UNL     1      25.846   5.863  12.105  1.00  0.00     0.270 S 
ATOM     99  O   UNL     1      26.611   4.573  11.987  1.00  0.00    -0.199 OA
ATOM    100  O   UNL     1      24.444   5.656  12.549  1.00  0.00    -0.199 OA
BRANCH  98 101
ATOM    101  O   UNL     1      25.913   6.611  10.580  1.00  0.00    -0.285 OA
ATOM    102  H   UNL     1      25.267   7.368  10.533  1.00  0.00     0.234 HD
ENDBRANCH  98 101
ENDBRANCH  84  98
ENDBRANCH  52  78
BRANCH  52 103
ATOM    103  C   UNL     1      26.823   8.529  18.032  1.00  0.00    -0.018 C 
ATOM    104  C   UNL     1      27.978   7.759  18.480  1.00  0.00     0.033 C 
ATOM    105  C   UNL     1      27.021  10.016  18.069  1.00  0.00     0.033 C 
ATOM    106  C   UNL     1      25.986   8.478  19.372  1.00  0.00     0.033 C 
ATOM    107  C   UNL     1      28.821   8.438  19.588  1.00  0.00     0.101 C 
ATOM    108  C   UNL     1      27.874  10.521  19.223  1.00  0.00     0.101 C 
ATOM    109  C   UNL     1      26.779   8.950  20.566  1.00  0.00     0.101 C 
ATOM    110  C   UNL     1      29.174   9.824  19.229  1.00  0.00     0.051 C 
ATOM    111  C   UNL     1      28.042   8.233  20.844  1.00  0.00     0.051 C 
ATOM    112  C   UNL     1      27.131  10.422  20.538  1.00  0.00     0.051 C 
BRANCH 107 113
ATOM    113  S   UNL     1      30.339   7.518  19.823  1.00  0.00     0.270 S 
ATOM    114  O   UNL     1      30.530   6.686  18.565  1.00  0.00    -0.199 OA
ATOM    115  O   UNL     1      31.452   8.502  19.878  1.00  0.00    -0.199 OA
BRANCH 113 116
ATOM    116  O   UNL     1      30.236   6.530  21.165  1.00  0.00    -0.285 OA
ATOM    117  H   UNL     1      31.074   5.995  21.238  1.00  0.00     0.234 HD
ENDBRANCH 113 116
ENDBRANCH 107 113
BRANCH 108 118
ATOM    118  S   UNL     1      28.140  12.261  18.955  1.00  0.00     0.270 S 
ATOM    119  O   UNL     1      27.571  13.054  20.078  1.00  0.00    -0.199 OA
ATOM    120  O   UNL     1      27.416  12.618  17.676  1.00  0.00    -0.199 OA
BRANCH 118 121
ATOM    121  O   UNL     1      29.759  12.576  18.709  1.00  0.00    -0.285 OA
ATOM    122  H   UNL     1      30.279  12.213  19.461  1.00  0.00     0.234 HD
ENDBRANCH 118 121
ENDBRANCH 108 118
BRANCH 109 123
ATOM    123  S   UNL     1      25.705   8.705  21.985  1.00  0.00     0.270 S 
ATOM    124  O   UNL     1      26.405   9.056  23.264  1.00  0.00    -0.199 OA
ATOM    125  O   UNL     1      25.237   7.290  21.928  1.00  0.00    -0.199 OA
BRANCH 123 126
ATOM    126  O   UNL     1      24.374   9.699  21.763  1.00  0.00    -0.285 OA
ATOM    127  H   UNL     1      24.657  10.421  21.132  1.00  0.00     0.234 HD
ENDBRANCH 123 126
ENDBRANCH 109 123
ENDBRANCH  52 103
ENDBRANCH  51  52
ENDBRANCH  50  51
ENDBRANCH  49  50
ENDBRANCH  48  49
ENDBRANCH  47  48
ENDBRANCH  46  47
ENDBRANCH  45  46
ENDBRANCH  44  45
ENDBRANCH   1  44
TORSDOF 43
ENDMDL
MODEL 2
REMARK VINA RESULT:   -10.501      1.491      6.631
REMARK INTER + INTRA:         -42.275
REMARK INTER:                 -33.254
REMARK INTRA:                  -9.021
REMARK UNBOUND:                -8.138
REMARK SMILES Cc1cc(C(=O)N[C@H](CNC(=O)c2cccc(COc3ccccc3C(N)=O)c2)C(=O)NCCCCCCCCCCCC([C@]23C[C@]4(S(=O)(=O)O)C[C@](S(=O)(=O)O)(C2)C[C@](S(=O)(=O)O)(C3)C4)([C@]23C[C@]4(S(=O)(=O)O)C[C@](S(=O)(=O)O)(C2)C[C@](S(=O)(=O)O)(C3)C4)[C@]23C[C@]4(S(=O)(=O)O)C[C@](S(=O)(=O)O)(C2)C[C@](S(=O)(=O)O)(C3)C4)[nH]n1
REMARK SMILES IDX 35 1 34 2 33 3 32 4 30 5 31 6 8 8 9 9 10 10 12 11 11 12
REMARK SMILES IDX 13 14 14 15 29 16 15 17 17 18 16 19 18 20 19 21 20 22 25 23
REMARK SMILES IDX 21 24 24 25 22 26 23 27 26 28 27 29 28 30 7 33 5 34 6 36
REMARK SMILES IDX 4 37 3 38 111 39 2 40 112 41 1 43 36 44 37 45 38 46 39 47
REMARK SMILES IDX 40 48 41 49 42 50 43 51 44 52 67 53 80 54 87 55 68 56 75 57
REMARK SMILES IDX 82 58 69 59 81 60 74 61 88 62 76 63 77 64 78 65 79 66 83 68
REMARK SMILES IDX 84 69 85 70 86 71 70 73 71 74 72 75 73 76 45 78 46 79 58 80
REMARK SMILES IDX 65 81 47 82 53 83 60 84 52 85 66 86 59 87 48 88 49 89 50 90
REMARK SMILES IDX 51 91 54 93 55 94 56 95 57 96 61 98 62 99 63 100 64 101
REMARK SMILES IDX 89 103 102 104 109 105 90 106 97 107 104 108 91 109 103 110
REMARK SMILES IDX 96 111 110 112 98 113 99 114 100 115 101 116 105 118 106 119
REMARK SMILES IDX 107 120 108 121 92 123 93 124 94 125 95 126
REMARK H PARENT 32 7 10 13 27 31 27 32 7 35 111 42 79 67 86 72 73 77 51 92
REMARK H PARENT 57 97 64 102 101 117 108 122 95 127
REMARK Flexibility Score: inf
ROOT
ATOM      1  C   UNL     1      21.706  -2.138  16.322  1.00  0.00     0.002 C 
ENDROOT
BRANCH   1   2
ATOM      2  C   UNL     1      20.789  -3.112  16.975  1.00  0.00     0.021 C 
BRANCH   2   3
ATOM      3  C   UNL     1      20.342  -4.231  16.089  1.00  0.00     0.116 C 
BRANCH   3   4
ATOM      4  N   UNL     1      18.963  -4.293  15.808  1.00  0.00    -0.354 N 
ATOM      5  C   UNL     1      17.826  -4.582  16.558  1.00  0.00     0.244 C 
ATOM      6  O   UNL     1      17.909  -4.855  17.789  1.00  0.00    -0.273 OA
ATOM      7  H   UNL     1      18.720  -4.062  14.763  1.00  0.00     0.163 HD
BRANCH   5   8
ATOM      8  C   UNL     1      16.430  -4.613  16.060  1.00  0.00     0.191 C 
BRANCH   8   9
ATOM      9  C   UNL     1      15.751  -3.297  16.165  1.00  0.00     0.151 C 
BRANCH   9  10
ATOM     10  N   UNL     1      16.779  -2.252  16.178  1.00  0.00    -0.349 N 
ATOM     11  O   UNL     1      15.931  -1.037  14.391  1.00  0.00    -0.269 OA
ATOM     12  C   UNL     1      16.773  -1.202  15.279  1.00  0.00     0.251 C 
ATOM     13  H   UNL     1      17.540  -2.344  16.930  1.00  0.00     0.163 HD
BRANCH  12  14
ATOM     14  C   UNL     1      17.854  -0.193  15.360  1.00  0.00     0.040 A 
ATOM     15  C   UNL     1      18.218   0.566  14.280  1.00  0.00     0.014 A 
ATOM     16  C   UNL     1      18.470  -0.041  16.580  1.00  0.00     0.021 A 
ATOM     17  C   UNL     1      19.231   1.508  14.418  1.00  0.00     0.001 A 
ATOM     18  C   UNL     1      19.486   0.899  16.727  1.00  0.00    -0.010 A 
ATOM     19  C   UNL     1      19.853   1.659  15.648  1.00  0.00     0.007 A 
BRANCH  18  20
ATOM     20  C   UNL     1      20.094   1.027  18.062  1.00  0.00     0.265 C 
BRANCH  20  21
ATOM     21  O   UNL     1      19.437   1.894  18.895  1.00  0.00    -0.488 OA
BRANCH  21  22
ATOM     22  C   UNL     1      19.853   2.406  20.076  1.00  0.00     0.132 A 
ATOM     23  C   UNL     1      18.877   2.761  21.004  1.00  0.00     0.081 A 
ATOM     24  C   UNL     1      21.147   2.611  20.456  1.00  0.00     0.047 A 
ATOM     25  C   UNL     1      19.204   3.281  22.223  1.00  0.00     0.018 A 
ATOM     26  C   UNL     1      21.491   3.133  21.678  1.00  0.00     0.004 A 
ATOM     27  C   UNL     1      20.507   3.482  22.598  1.00  0.00     0.001 A 
BRANCH  23  28
ATOM     28  C   UNL     1      17.459   2.586  20.628  1.00  0.00     0.252 C 
ATOM     29  N   UNL     1      16.981   3.085  19.390  1.00  0.00    -0.365 N 
ATOM     30  O   UNL     1      16.720   2.003  21.433  1.00  0.00    -0.269 OA
ATOM     31  H   UNL     1      16.784   4.128  19.357  1.00  0.00     0.159 HD
ATOM     32  H   UNL     1      16.824   2.498  18.563  1.00  0.00     0.159 HD
ENDBRANCH  23  28
ENDBRANCH  21  22
ENDBRANCH  20  21
ENDBRANCH  18  20
ENDBRANCH  12  14
ENDBRANCH   9  10
ENDBRANCH   8   9
BRANCH   8  33
ATOM     33  N   UNL     1      16.490  -5.140  14.713  1.00  0.00    -0.337 N 
ATOM     34  C   UNL     1      15.567  -6.069  14.230  1.00  0.00     0.270 C 
ATOM     35  H   UNL     1      17.264  -4.787  14.098  1.00  0.00     0.164 HD
ATOM     36  O   UNL     1      14.613  -6.538  14.901  1.00  0.00    -0.268 OA
BRANCH  34  37
ATOM     37  C   UNL     1      15.714  -6.533  12.828  1.00  0.00     0.123 A 
ATOM     38  C   UNL     1      16.582  -7.491  12.368  1.00  0.00     0.058 A 
ATOM     39  N   UNL     1      15.013  -6.096  11.770  1.00  0.00    -0.273 N 
ATOM     40  C   UNL     1      16.380  -7.618  10.992  1.00  0.00     0.060 A 
ATOM     41  N   UNL     1      15.410  -6.734  10.701  1.00  0.00    -0.180 NA
ATOM     42  H   UNL     1      14.270  -5.366  11.784  1.00  0.00     0.190 HD
ATOM     43  C   UNL     1      17.071  -8.532  10.041  1.00  0.00     0.069 C 
ENDBRANCH  34  37
ENDBRANCH   8  33
ENDBRANCH   5   8
ENDBRANCH   3   4
ENDBRANCH   2   3
ENDBRANCH   1   2
BRANCH   1  44
ATOM     44  C   UNL     1      22.663  -1.447  17.204  1.00  0.00     0.000 C 
BRANCH  44  45
ATOM     45  C   UNL     1      23.267  -0.176  16.842  1.00  0.00     0.000 C 
BRANCH  45  46
ATOM     46  C   UNL     1      23.693   0.862  17.748  1.00  0.00     0.000 C 
BRANCH  46  47
ATOM     47  C   UNL     1      23.710   2.264  17.232  1.00  0.00     0.000 C 
BRANCH  47  48
ATOM     48  C   UNL     1      24.755   2.980  18.100  1.00  0.00     0.000 C 
BRANCH  48  49
ATOM     49  C   UNL     1      25.438   4.056  17.377  1.00  0.00     0.000 C 
BRANCH  49  50
ATOM     50  C   UNL     1      25.869   5.222  18.378  1.00  0.00     0.001 C 
BRANCH  50  51
ATOM     51  C   UNL     1      25.789   6.470  17.777  1.00  0.00     0.009 C 
BRANCH  51  52
ATOM     52  C   UNL     1      26.455   7.726  17.352  1.00  0.00    -0.012 C 
BRANCH  52  53
ATOM     53  C   UNL     1      27.968   7.516  17.569  1.00  0.00    -0.018 C 
ATOM     54  C   UNL     1      28.517   7.575  18.912  1.00  0.00     0.033 C 
ATOM     55  C   UNL     1      28.581   6.395  16.856  1.00  0.00     0.033 C 
ATOM     56  C   UNL     1      28.683   8.637  16.763  1.00  0.00     0.033 C 
ATOM     57  C   UNL     1      30.031   7.707  19.000  1.00  0.00     0.101 C 
ATOM     58  C   UNL     1      30.050   6.211  17.077  1.00  0.00     0.101 C 
ATOM     59  C   UNL     1      30.216   8.495  16.824  1.00  0.00     0.101 C 
ATOM     60  C   UNL     1      30.605   6.402  18.415  1.00  0.00     0.051 C 
ATOM     61  C   UNL     1      30.613   8.796  18.234  1.00  0.00     0.051 C 
ATOM     62  C   UNL     1      30.759   7.277  16.219  1.00  0.00     0.051 C 
BRANCH  57  63
ATOM     63  S   UNL     1      30.446   7.676  20.734  1.00  0.00     0.270 S 
ATOM     64  O   UNL     1      29.366   8.343  21.529  1.00  0.00    -0.199 OA
ATOM     65  O   UNL     1      31.716   8.465  20.972  1.00  0.00    -0.199 OA
BRANCH  63  66
ATOM     66  O   UNL     1      30.699   6.084  21.254  1.00  0.00    -0.285 OA
ATOM     67  H   UNL     1      31.654   5.869  21.031  1.00  0.00     0.234 HD
ENDBRANCH  63  66
ENDBRANCH  57  63
BRANCH  58  68
ATOM     68  S   UNL     1      30.602   4.656  16.414  1.00  0.00     0.270 S 
ATOM     69  O   UNL     1      29.399   3.784  16.117  1.00  0.00    -0.199 OA
ATOM     70  O   UNL     1      31.424   3.893  17.424  1.00  0.00    -0.199 OA
BRANCH  68  71
ATOM     71  O   UNL     1      31.535   4.874  15.043  1.00  0.00    -0.285 OA
ATOM     72  H   UNL     1      31.115   4.347  14.316  1.00  0.00     0.234 HD
ENDBRANCH  68  71
ENDBRANCH  58  68
BRANCH  59  73
ATOM     73  S   UNL     1      30.847   9.871  15.846  1.00  0.00     0.270 S 
ATOM     74  O   UNL     1      32.009  10.508  16.558  1.00  0.00    -0.199 OA
ATOM     75  O   UNL     1      31.343   9.410  14.510  1.00  0.00    -0.199 OA
BRANCH  73  76
ATOM     76  O   UNL     1      29.689  11.024  15.591  1.00  0.00    -0.285 OA
ATOM     77  H   UNL     1      29.096  10.807  14.857  1.00  0.00     0.234 HD
ENDBRANCH  73  76
ENDBRANCH  59  73
ENDBRANCH  52  53
BRANCH  52  78
ATOM     78  C   UNL     1      25.883   8.778  18.287  1.00  0.00    -0.018 C 
ATOM     79  C   UNL     1      25.905   8.361  19.758  1.00  0.00     0.033 C 
ATOM     80  C   UNL     1      24.362   8.843  18.256  1.00  0.00     0.033 C 
ATOM     81  C   UNL     1      26.568  10.054  18.421  1.00  0.00     0.033 C 
ATOM     82  C   UNL     1      25.261   9.407  20.681  1.00  0.00     0.101 C 
ATOM     83  C   UNL     1      23.754   9.963  19.062  1.00  0.00     0.101 C 
ATOM     84  C   UNL     1      25.778  11.138  19.199  1.00  0.00     0.101 C 
ATOM     85  C   UNL     1      23.807   9.577  20.509  1.00  0.00     0.051 C 
ATOM     86  C   UNL     1      25.879  10.754  20.661  1.00  0.00     0.051 C 
ATOM     87  C   UNL     1      24.397  11.260  18.726  1.00  0.00     0.051 C 
BRANCH  82  88
ATOM     88  S   UNL     1      25.507   8.752  22.334  1.00  0.00     0.270 S 
ATOM     89  O   UNL     1      24.427   9.274  23.261  1.00  0.00    -0.199 OA
ATOM     90  O   UNL     1      25.474   7.247  22.265  1.00  0.00    -0.199 OA
BRANCH  88  91
ATOM     91  O   UNL     1      26.997   9.257  22.872  1.00  0.00    -0.285 OA
ATOM     92  H   UNL     1      26.977  10.238  23.003  1.00  0.00     0.234 HD
ENDBRANCH  88  91
ENDBRANCH  82  88
BRANCH  83  93
ATOM     93  S   UNL     1      22.010  10.153  18.738  1.00  0.00     0.270 S 
ATOM     94  O   UNL     1      21.310  10.215  20.065  1.00  0.00    -0.199 OA
ATOM     95  O   UNL     1      21.451   8.991  17.990  1.00  0.00    -0.199 OA
BRANCH  93  96
ATOM     96  O   UNL     1      21.777  11.601  17.926  1.00  0.00    -0.285 OA
ATOM     97  H   UNL     1      20.879  11.937  18.174  1.00  0.00     0.234 HD
ENDBRANCH  93  96
ENDBRANCH  83  93
BRANCH  84  98
ATOM     98  S   UNL     1      26.605  12.707  19.033  1.00  0.00     0.270 S 
ATOM     99  O   UNL     1      25.565  13.741  18.697  1.00  0.00    -0.199 OA
ATOM    100  O   UNL     1      27.393  13.061  20.239  1.00  0.00    -0.199 OA
BRANCH  98 101
ATOM    101  O   UNL     1      27.599  12.552  17.661  1.00  0.00    -0.285 OA
ATOM    102  H   UNL     1      27.422  11.687  17.198  1.00  0.00     0.234 HD
ENDBRANCH  98 101
ENDBRANCH  84  98
ENDBRANCH  52  78
BRANCH  52 103
ATOM    103  C   UNL     1      26.173   7.936  15.874  1.00  0.00    -0.018 C 
ATOM    104  C   UNL     1      26.769   9.054  15.152  1.00  0.00     0.033 C 
ATOM    105  C   UNL     1      26.052   6.675  15.069  1.00  0.00     0.033 C 
ATOM    106  C   UNL     1      24.655   8.342  15.705  1.00  0.00     0.033 C 
ATOM    107  C   UNL     1      26.457   9.087  13.634  1.00  0.00     0.101 C 
ATOM    108  C   UNL     1      25.740   6.884  13.595  1.00  0.00     0.101 C 
ATOM    109  C   UNL     1      24.279   8.583  14.263  1.00  0.00     0.101 C 
ATOM    110  C   UNL     1      26.738   7.789  12.993  1.00  0.00     0.051 C 
ATOM    111  C   UNL     1      25.062   9.609  13.540  1.00  0.00     0.051 C 
ATOM    112  C   UNL     1      24.312   7.343  13.395  1.00  0.00     0.051 C 
BRANCH 107 113
ATOM    113  S   UNL     1      27.476  10.331  12.848  1.00  0.00     0.270 S 
ATOM    114  O   UNL     1      26.896  10.540  11.458  1.00  0.00    -0.199 OA
ATOM    115  O   UNL     1      27.291  11.599  13.602  1.00  0.00    -0.199 OA
BRANCH 113 116
ATOM    116  O   UNL     1      29.063   9.825  12.747  1.00  0.00    -0.285 OA
ATOM    117  H   UNL     1      29.454  10.154  11.891  1.00  0.00     0.234 HD
ENDBRANCH 113 116
ENDBRANCH 107 113
BRANCH 108 118
ATOM    118  S   UNL     1      25.842   5.290  12.807  1.00  0.00     0.270 S 
ATOM    119  O   UNL     1      27.089   4.586  13.215  1.00  0.00    -0.199 OA
ATOM    120  O   UNL     1      25.880   5.546  11.317  1.00  0.00    -0.199 OA
BRANCH 118 121
ATOM    121  O   UNL     1      24.473   4.392  13.119  1.00  0.00    -0.285 OA
ATOM    122  H   UNL     1      24.624   3.833  13.915  1.00  0.00     0.234 HD
ENDBRANCH 118 121
ENDBRANCH 108 118
BRANCH 109 123
ATOM    123  S   UNL     1      22.572   9.143  14.297  1.00  0.00     0.270 S 
ATOM    124  O   UNL     1      22.032   9.325  12.910  1.00  0.00    -0.199 OA
ATOM    125  O   UNL     1      22.547  10.387  15.118  1.00  0.00    -0.199 OA
BRANCH 123 126
ATOM    126  O   UNL     1      21.694   7.968  15.109  1.00  0.00    -0.285 OA
ATOM    127  H   UNL     1      21.984   8.002  16.064  1.00  0.00     0.234 HD
ENDBRANCH 123 126
ENDBRANCH 109 123
ENDBRANCH  52 103
ENDBRANCH  51  52
ENDBRANCH  50  51
ENDBRANCH  49  50
ENDBRANCH  48  49
ENDBRANCH  47  48
ENDBRANCH  46  47
ENDBRANCH  45  46
ENDBRANCH  44  45
ENDBRANCH   1  44
TORSDOF 43
ENDMDL
MODEL 3
REMARK VINA RESULT:   -10.385      1.630      4.872
REMARK INTER + INTRA:         -41.896
REMARK INTER:                 -33.589
REMARK INTRA:                  -8.307
REMARK UNBOUND:                -8.138
REMARK SMILES Cc1cc(C(=O)N[C@H](CNC(=O)c2cccc(COc3ccccc3C(N)=O)c2)C(=O)NCCCCCCCCCCCC([C@]23C[C@]4(S(=O)(=O)O)C[C@](S(=O)(=O)O)(C2)C[C@](S(=O)(=O)O)(C3)C4)([C@]23C[C@]4(S(=O)(=O)O)C[C@](S(=O)(=O)O)(C2)C[C@](S(=O)(=O)O)(C3)C4)[C@]23C[C@]4(S(=O)(=O)O)C[C@](S(=O)(=O)O)(C2)C[C@](S(=O)(=O)O)(C3)C4)[nH]n1
REMARK SMILES IDX 35 1 34 2 33 3 32 4 30 5 31 6 8 8 9 9 10 10 12 11 11 12
REMARK SMILES IDX 13 14 14 15 29 16 15 17 17 18 16 19 18 20 19 21 20 22 25 23
REMARK SMILES IDX 21 24 24 25 22 26 23 27 26 28 27 29 28 30 7 33 5 34 6 36
REMARK SMILES IDX 4 37 3 38 111 39 2 40 112 41 1 43 36 44 37 45 38 46 39 47
REMARK SMILES IDX 40 48 41 49 42 50 43 51 44 52 67 53 80 54 87 55 68 56 75 57
REMARK SMILES IDX 82 58 69 59 81 60 74 61 88 62 76 63 77 64 78 65 79 66 83 68
REMARK SMILES IDX 84 69 85 70 86 71 70 73 71 74 72 75 73 76 45 78 46 79 58 80
REMARK SMILES IDX 65 81 47 82 53 83 60 84 52 85 66 86 59 87 48 88 49 89 50 90
REMARK SMILES IDX 51 91 54 93 55 94 56 95 57 96 61 98 62 99 63 100 64 101
REMARK SMILES IDX 89 103 102 104 109 105 90 106 97 107 104 108 91 109 103 110
REMARK SMILES IDX 96 111 110 112 98 113 99 114 100 115 101 116 105 118 106 119
REMARK SMILES IDX 107 120 108 121 92 123 93 124 94 125 95 126
REMARK H PARENT 32 7 10 13 27 31 27 32 7 35 111 42 79 67 86 72 73 77 51 92
REMARK H PARENT 57 97 64 102 101 117 108 122 95 127
REMARK Flexibility Score: inf
ROOT
ATOM      1  C   UNL     1      21.817  -1.705  16.434  1.00  0.00     0.002 C 
ENDROOT
BRANCH   1   2
ATOM      2  C   UNL     1      20.764  -2.486  17.138  1.00  0.00     0.021 C 
BRANCH   2   3
ATOM      3  C   UNL     1      20.558  -3.868  16.604  1.00  0.00     0.116 C 
BRANCH   3   4
ATOM      4  N   UNL     1      19.238  -4.209  16.245  1.00  0.00    -0.354 N 
ATOM      5  C   UNL     1      18.063  -4.442  16.954  1.00  0.00     0.244 C 
ATOM      6  O   UNL     1      18.032  -4.347  18.214  1.00  0.00    -0.273 OA
ATOM      7  H   UNL     1      19.096  -4.315  15.162  1.00  0.00     0.163 HD
BRANCH   5   8
ATOM      8  C   UNL     1      16.749  -4.816  16.378  1.00  0.00     0.191 C 
BRANCH   8   9
ATOM      9  C   UNL     1      15.841  -3.653  16.211  1.00  0.00     0.151 C 
BRANCH   9  10
ATOM     10  N   UNL     1      16.662  -2.443  16.102  1.00  0.00    -0.349 N 
ATOM     11  O   UNL     1      15.440  -1.457  14.394  1.00  0.00    -0.269 OA
ATOM     12  C   UNL     1      16.381  -1.441  15.193  1.00  0.00     0.251 C 
ATOM     13  H   UNL     1      17.498  -2.375  16.773  1.00  0.00     0.163 HD
BRANCH  12  14
ATOM     14  C   UNL     1      17.267  -0.256  15.147  1.00  0.00     0.040 A 
ATOM     15  C   UNL     1      17.253   0.618  14.092  1.00  0.00     0.014 A 
ATOM     16  C   UNL     1      18.100  -0.062  16.224  1.00  0.00     0.021 A 
ATOM     17  C   UNL     1      18.098   1.722  14.110  1.00  0.00     0.001 A 
ATOM     18  C   UNL     1      18.949   1.040  16.249  1.00  0.00    -0.010 A 
ATOM     19  C   UNL     1      18.938   1.916  15.196  1.00  0.00     0.007 A 
BRANCH  18  20
ATOM     20  C   UNL     1      19.803   1.203  17.439  1.00  0.00     0.265 C 
BRANCH  20  21
ATOM     21  O   UNL     1      19.226   1.931  18.445  1.00  0.00    -0.488 OA
BRANCH  21  22
ATOM     22  C   UNL     1      19.763   2.300  19.632  1.00  0.00     0.132 A 
ATOM     23  C   UNL     1      18.885   2.576  20.677  1.00  0.00     0.081 A 
ATOM     24  C   UNL     1      21.091   2.429  19.911  1.00  0.00     0.047 A 
ATOM     25  C   UNL     1      19.336   2.951  21.910  1.00  0.00     0.018 A 
ATOM     26  C   UNL     1      21.560   2.806  21.146  1.00  0.00     0.004 A 
ATOM     27  C   UNL     1      20.673   3.077  22.183  1.00  0.00     0.001 A 
BRANCH  23  28
ATOM     28  C   UNL     1      17.434   2.479  20.417  1.00  0.00     0.252 C 
ATOM     29  N   UNL     1      16.924   2.722  19.115  1.00  0.00    -0.365 N 
ATOM     30  O   UNL     1      16.698   2.190  21.370  1.00  0.00    -0.269 OA
ATOM     31  H   UNL     1      16.830   3.743  18.839  1.00  0.00     0.159 HD
ATOM     32  H   UNL     1      16.653   1.977  18.463  1.00  0.00     0.159 HD
ENDBRANCH  23  28
ENDBRANCH  21  22
ENDBRANCH  20  21
ENDBRANCH  18  20
ENDBRANCH  12  14
ENDBRANCH   9  10
ENDBRANCH   8   9
BRANCH   8  33
ATOM     33  N   UNL     1      17.031  -5.525  15.147  1.00  0.00    -0.337 N 
ATOM     34  C   UNL     1      16.111  -6.391  14.554  1.00  0.00     0.270 C 
ATOM     35  H   UNL     1      17.968  -5.357  14.706  1.00  0.00     0.164 HD
ATOM     36  O   UNL     1      14.971  -6.644  15.019  1.00  0.00    -0.268 OA
BRANCH  34  37
ATOM     37  C   UNL     1      16.499  -7.056  13.286  1.00  0.00     0.123 A 
ATOM     38  C   UNL     1      16.039  -6.755  12.028  1.00  0.00     0.058 A 
ATOM     39  N   UNL     1      17.374  -8.065  13.155  1.00  0.00    -0.273 N 
ATOM     40  C   UNL     1      16.670  -7.618  11.130  1.00  0.00     0.060 A 
ATOM     41  N   UNL     1      17.468  -8.389  11.891  1.00  0.00    -0.180 NA
ATOM     42  H   UNL     1      17.901  -8.526  13.925  1.00  0.00     0.190 HD
ATOM     43  C   UNL     1      16.514  -7.682   9.651  1.00  0.00     0.069 C 
ENDBRANCH  34  37
ENDBRANCH   8  33
ENDBRANCH   5   8
ENDBRANCH   3   4
ENDBRANCH   2   3
ENDBRANCH   1   2
BRANCH   1  44
ATOM     44  C   UNL     1      22.865  -1.108  17.280  1.00  0.00     0.000 C 
BRANCH  44  45
ATOM     45  C   UNL     1      23.328   0.256  17.087  1.00  0.00     0.000 C 
BRANCH  45  46
ATOM     46  C   UNL     1      24.041   1.066  18.044  1.00  0.00     0.000 C 
BRANCH  46  47
ATOM     47  C   UNL     1      24.105   2.537  17.792  1.00  0.00     0.000 C 
BRANCH  47  48
ATOM     48  C   UNL     1      24.890   3.098  18.987  1.00  0.00     0.000 C 
BRANCH  48  49
ATOM     49  C   UNL     1      24.934   4.563  18.987  1.00  0.00     0.000 C 
BRANCH  49  50
ATOM     50  C   UNL     1      25.768   5.100  17.737  1.00  0.00     0.001 C 
BRANCH  50  51
ATOM     51  C   UNL     1      26.235   6.389  17.947  1.00  0.00     0.009 C 
BRANCH  51  52
ATOM     52  C   UNL     1      26.611   7.715  17.398  1.00  0.00    -0.012 C 
BRANCH  52  53
ATOM     53  C   UNL     1      26.136   7.734  15.930  1.00  0.00    -0.018 C 
ATOM     54  C   UNL     1      26.279   6.541  15.113  1.00  0.00     0.033 C 
ATOM     55  C   UNL     1      24.823   8.327  15.675  1.00  0.00     0.033 C 
ATOM     56  C   UNL     1      26.961   8.843  15.219  1.00  0.00     0.033 C 
ATOM     57  C   UNL     1      26.116   6.746  13.614  1.00  0.00     0.101 C 
ATOM     58  C   UNL     1      24.383   8.338  14.245  1.00  0.00     0.101 C 
ATOM     59  C   UNL     1      26.525   9.028  13.753  1.00  0.00     0.101 C 
ATOM     60  C   UNL     1      24.651   7.176  13.402  1.00  0.00     0.051 C 
ATOM     61  C   UNL     1      26.942   7.788  13.027  1.00  0.00     0.051 C 
ATOM     62  C   UNL     1      25.148   9.487  13.559  1.00  0.00     0.051 C 
BRANCH  57  63
ATOM     63  S   UNL     1      26.255   5.136  12.860  1.00  0.00     0.270 S 
ATOM     64  O   UNL     1      25.979   5.235  11.391  1.00  0.00    -0.199 OA
ATOM     65  O   UNL     1      25.213   4.205  13.440  1.00  0.00    -0.199 OA
BRANCH  63  66
ATOM     66  O   UNL     1      27.787   4.475  13.154  1.00  0.00    -0.285 OA
ATOM     67  H   UNL     1      28.048   3.997  12.312  1.00  0.00     0.234 HD
ENDBRANCH  63  66
ENDBRANCH  57  63
BRANCH  58  68
ATOM     68  S   UNL     1      22.669   8.793  14.111  1.00  0.00     0.270 S 
ATOM     69  O   UNL     1      21.805   7.587  14.425  1.00  0.00    -0.199 OA
ATOM     70  O   UNL     1      22.318   9.192  12.699  1.00  0.00    -0.199 OA
BRANCH  68  71
ATOM     71  O   UNL     1      22.297  10.073  15.122  1.00  0.00    -0.285 OA
ATOM     72  H   UNL     1      22.984  10.772  14.974  1.00  0.00     0.234 HD
ENDBRANCH  68  71
ENDBRANCH  58  68
BRANCH  59  73
ATOM     73  S   UNL     1      27.588  10.336  13.115  1.00  0.00     0.270 S 
ATOM     74  O   UNL     1      27.488  11.547  14.002  1.00  0.00    -0.199 OA
ATOM     75  O   UNL     1      29.025   9.913  13.100  1.00  0.00    -0.199 OA
BRANCH  73  76
ATOM     76  O   UNL     1      27.167  10.772  11.576  1.00  0.00    -0.285 OA
ATOM     77  H   UNL     1      27.676  10.303  10.899  1.00  0.00     0.234 HD
ENDBRANCH  73  76
ENDBRANCH  59  73
ENDBRANCH  52  53
BRANCH  52  78
ATOM     78  C   UNL     1      28.126   7.742  17.509  1.00  0.00    -0.018 C 
ATOM     79  C   UNL     1      28.796   6.465  17.000  1.00  0.00     0.033 C 
ATOM     80  C   UNL     1      28.625   7.520  18.931  1.00  0.00     0.033 C 
ATOM     81  C   UNL     1      28.878   8.703  16.718  1.00  0.00     0.033 C 
ATOM     82  C   UNL     1      30.321   6.481  17.184  1.00  0.00     0.101 C 
ATOM     83  C   UNL     1      30.114   7.674  19.117  1.00  0.00     0.101 C 
ATOM     84  C   UNL     1      30.380   8.815  17.086  1.00  0.00     0.101 C 
ATOM     85  C   UNL     1      30.779   6.442  18.584  1.00  0.00     0.051 C 
ATOM     86  C   UNL     1      31.042   7.583  16.503  1.00  0.00     0.051 C 
ATOM     87  C   UNL     1      30.586   8.955  18.530  1.00  0.00     0.051 C 
BRANCH  82  88
ATOM     88  S   UNL     1      30.876   4.953  16.421  1.00  0.00     0.270 S 
ATOM     89  O   UNL     1      31.928   5.255  15.372  1.00  0.00    -0.199 OA
ATOM     90  O   UNL     1      31.431   4.053  17.495  1.00  0.00    -0.199 OA
BRANCH  88  91
ATOM     91  O   UNL     1      29.562   4.229  15.704  1.00  0.00    -0.285 OA
ATOM     92  H   UNL     1      28.742   4.720  15.962  1.00  0.00     0.234 HD
ENDBRANCH  88  91
ENDBRANCH  82  88
BRANCH  83  93
ATOM     93  S   UNL     1      30.576   7.694  20.839  1.00  0.00     0.270 S 
ATOM     94  O   UNL     1      29.490   8.410  21.589  1.00  0.00    -0.199 OA
ATOM     95  O   UNL     1      31.847   8.441  21.068  1.00  0.00    -0.199 OA
BRANCH  93  96
ATOM     96  O   UNL     1      30.667   6.110  21.382  1.00  0.00    -0.285 OA
ATOM     97  H   UNL     1      31.408   6.065  22.036  1.00  0.00     0.234 HD
ENDBRANCH  93  96
ENDBRANCH  83  93
BRANCH  84  98
ATOM     98  S   UNL     1      31.093  10.214  16.244  1.00  0.00     0.270 S 
ATOM     99  O   UNL     1      31.875  11.007  17.255  1.00  0.00    -0.199 OA
ATOM    100  O   UNL     1      31.913   9.812  15.074  1.00  0.00    -0.199 OA
BRANCH  98 101
ATOM    101  O   UNL     1      29.774  11.182  15.780  1.00  0.00    -0.285 OA
ATOM    102  H   UNL     1      29.906  11.531  14.855  1.00  0.00     0.234 HD
ENDBRANCH  98 101
ENDBRANCH  84  98
ENDBRANCH  52  78
BRANCH  52 103
ATOM    103  C   UNL     1      25.874   8.783  18.188  1.00  0.00    -0.018 C 
ATOM    104  C   UNL     1      26.412  10.134  18.302  1.00  0.00     0.033 C 
ATOM    105  C   UNL     1      24.378   8.721  18.091  1.00  0.00     0.033 C 
ATOM    106  C   UNL     1      25.919   8.394  19.720  1.00  0.00     0.033 C 
ATOM    107  C   UNL     1      25.508  11.132  19.067  1.00  0.00     0.101 C 
ATOM    108  C   UNL     1      23.638   9.771  18.907  1.00  0.00     0.101 C 
ATOM    109  C   UNL     1      25.217   9.406  20.593  1.00  0.00     0.101 C 
ATOM    110  C   UNL     1      24.126  11.118  18.552  1.00  0.00     0.051 C 
ATOM    111  C   UNL     1      25.703  10.800  20.509  1.00  0.00     0.051 C 
ATOM    112  C   UNL     1      23.718   9.472  20.388  1.00  0.00     0.051 C 
BRANCH 107 113
ATOM    113  S   UNL     1      26.159  12.788  18.875  1.00  0.00     0.270 S 
ATOM    114  O   UNL     1      24.969  13.728  18.985  1.00  0.00    -0.199 OA
ATOM    115  O   UNL     1      27.045  13.055  20.039  1.00  0.00    -0.199 OA
BRANCH 113 116
ATOM    116  O   UNL     1      26.908  12.966  17.394  1.00  0.00    -0.285 OA
ATOM    117  H   UNL     1      26.371  12.492  16.701  1.00  0.00     0.234 HD
ENDBRANCH 113 116
ENDBRANCH 107 113
BRANCH 108 118
ATOM    118  S   UNL     1      21.913   9.641  18.486  1.00  0.00     0.270 S 
ATOM    119  O   UNL     1      21.689   8.506  17.551  1.00  0.00    -0.199 OA
ATOM    120  O   UNL     1      21.536  10.935  17.799  1.00  0.00    -0.199 OA
BRANCH 118 121
ATOM    121  O   UNL     1      20.980   9.524  19.863  1.00  0.00    -0.285 OA
ATOM    122  H   UNL     1      20.030   9.604  19.620  1.00  0.00     0.234 HD
ENDBRANCH 118 121
ENDBRANCH 108 118
BRANCH 109 123
ATOM    123  S   UNL     1      25.481   8.851  22.281  1.00  0.00     0.270 S 
ATOM    124  O   UNL     1      26.748   9.419  22.848  1.00  0.00    -0.199 OA
ATOM    125  O   UNL     1      25.454   7.361  22.251  1.00  0.00    -0.199 OA
BRANCH 123 126
ATOM    126  O   UNL     1      24.163   9.374  23.175  1.00  0.00    -0.285 OA
ATOM    127  H   UNL     1      23.494   8.633  23.160  1.00  0.00     0.234 HD
ENDBRANCH 123 126
ENDBRANCH 109 123
ENDBRANCH  52 103
ENDBRANCH  51  52
ENDBRANCH  50  51
ENDBRANCH  49  50
ENDBRANCH  48  49
ENDBRANCH  47  48
ENDBRANCH  46  47
ENDBRANCH  45  46
ENDBRANCH  44  45
ENDBRANCH   1  44
TORSDOF 43
ENDMDL
MODEL 4
REMARK VINA RESULT:   -10.302      0.887      6.115
REMARK INTER + INTRA:         -41.628
REMARK INTER:                 -32.611
REMARK INTRA:                  -9.017
REMARK UNBOUND:                -8.138
REMARK SMILES Cc1cc(C(=O)N[C@H](CNC(=O)c2cccc(COc3ccccc3C(N)=O)c2)C(=O)NCCCCCCCCCCCC([C@]23C[C@]4(S(=O)(=O)O)C[C@](S(=O)(=O)O)(C2)C[C@](S(=O)(=O)O)(C3)C4)([C@]23C[C@]4(S(=O)(=O)O)C[C@](S(=O)(=O)O)(C2)C[C@](S(=O)(=O)O)(C3)C4)[C@]23C[C@]4(S(=O)(=O)O)C[C@](S(=O)(=O)O)(C2)C[C@](S(=O)(=O)O)(C3)C4)[nH]n1
REMARK SMILES IDX 35 1 34 2 33 3 32 4 30 5 31 6 8 8 9 9 10 10 12 11 11 12
REMARK SMILES IDX 13 14 14 15 29 16 15 17 17 18 16 19 18 20 19 21 20 22 25 23
REMARK SMILES IDX 21 24 24 25 22 26 23 27 26 28 27 29 28 30 7 33 5 34 6 36
REMARK SMILES IDX 4 37 3 38 111 39 2 40 112 41 1 43 36 44 37 45 38 46 39 47
REMARK SMILES IDX 40 48 41 49 42 50 43 51 44 52 67 53 80 54 87 55 68 56 75 57
REMARK SMILES IDX 82 58 69 59 81 60 74 61 88 62 76 63 77 64 78 65 79 66 83 68
REMARK SMILES IDX 84 69 85 70 86 71 70 73 71 74 72 75 73 76 45 78 46 79 58 80
REMARK SMILES IDX 65 81 47 82 53 83 60 84 52 85 66 86 59 87 48 88 49 89 50 90
REMARK SMILES IDX 51 91 54 93 55 94 56 95 57 96 61 98 62 99 63 100 64 101
REMARK SMILES IDX 89 103 102 104 109 105 90 106 97 107 104 108 91 109 103 110
REMARK SMILES IDX 96 111 110 112 98 113 99 114 100 115 101 116 105 118 106 119
REMARK SMILES IDX 107 120 108 121 92 123 93 124 94 125 95 126
REMARK H PARENT 32 7 10 13 27 31 27 32 7 35 111 42 79 67 86 72 73 77 51 92
REMARK H PARENT 57 97 64 102 101 117 108 122 95 127
REMARK Flexibility Score: inf
ROOT
ATOM      1  C   UNL     1      21.808  -1.585  15.952  1.00  0.00     0.002 C 
ENDROOT
BRANCH   1   2
ATOM      2  C   UNL     1      20.756  -2.096  15.031  1.00  0.00     0.021 C 
BRANCH   2   3
ATOM      3  C   UNL     1      20.390  -3.530  15.245  1.00  0.00     0.116 C 
BRANCH   3   4
ATOM      4  N   UNL     1      19.017  -3.841  15.186  1.00  0.00    -0.354 N 
ATOM      5  C   UNL     1      18.030  -4.089  16.136  1.00  0.00     0.244 C 
ATOM      6  O   UNL     1      18.289  -4.044  17.372  1.00  0.00    -0.273 OA
ATOM      7  H   UNL     1      18.629  -3.902  14.161  1.00  0.00     0.163 HD
BRANCH   5   8
ATOM      8  C   UNL     1      16.612  -4.424  15.862  1.00  0.00     0.191 C 
BRANCH   8   9
ATOM      9  C   UNL     1      15.695  -3.279  16.089  1.00  0.00     0.151 C 
BRANCH   9  10
ATOM     10  N   UNL     1      16.407  -2.046  15.738  1.00  0.00    -0.349 N 
ATOM     11  O   UNL     1      15.486  -1.814  13.620  1.00  0.00    -0.269 OA
ATOM     12  C   UNL     1      16.233  -1.417  14.520  1.00  0.00     0.251 C 
ATOM     13  H   UNL     1      17.072  -1.654  16.483  1.00  0.00     0.163 HD
BRANCH  12  14
ATOM     14  C   UNL     1      16.997  -0.178  14.246  1.00  0.00     0.040 A 
ATOM     15  C   UNL     1      16.662   0.668  13.222  1.00  0.00     0.014 A 
ATOM     16  C   UNL     1      18.054   0.095  15.081  1.00  0.00     0.021 A 
ATOM     17  C   UNL     1      17.407   1.823  13.021  1.00  0.00     0.001 A 
ATOM     18  C   UNL     1      18.806   1.250  14.886  1.00  0.00    -0.010 A 
ATOM     19  C   UNL     1      18.475   2.098  13.861  1.00  0.00     0.007 A 
BRANCH  18  20
ATOM     20  C   UNL     1      19.915   1.497  15.824  1.00  0.00     0.265 C 
BRANCH  20  21
ATOM     21  O   UNL     1      19.556   1.425  17.145  1.00  0.00    -0.488 OA
BRANCH  21  22
ATOM     22  C   UNL     1      20.247   1.846  18.229  1.00  0.00     0.132 A 
ATOM     23  C   UNL     1      19.522   2.138  19.382  1.00  0.00     0.081 A 
ATOM     24  C   UNL     1      21.598   2.013  18.310  1.00  0.00     0.047 A 
ATOM     25  C   UNL     1      20.135   2.565  20.524  1.00  0.00     0.018 A 
ATOM     26  C   UNL     1      22.229   2.442  19.451  1.00  0.00     0.004 A 
ATOM     27  C   UNL     1      21.494   2.729  20.597  1.00  0.00     0.001 A 
BRANCH  23  28
ATOM     28  C   UNL     1      18.052   2.001  19.336  1.00  0.00     0.252 C 
ATOM     29  N   UNL     1      17.358   2.143  18.106  1.00  0.00    -0.365 N 
ATOM     30  O   UNL     1      17.464   1.770  20.401  1.00  0.00    -0.269 OA
ATOM     31  H   UNL     1      17.202   3.140  17.776  1.00  0.00     0.159 HD
ATOM     32  H   UNL     1      17.017   1.350  17.552  1.00  0.00     0.159 HD
ENDBRANCH  23  28
ENDBRANCH  21  22
ENDBRANCH  20  21
ENDBRANCH  18  20
ENDBRANCH  12  14
ENDBRANCH   9  10
ENDBRANCH   8   9
BRANCH   8  33
ATOM     33  N   UNL     1      16.572  -4.953  14.515  1.00  0.00    -0.337 N 
ATOM     34  C   UNL     1      15.740  -6.015  14.152  1.00  0.00     0.270 C 
ATOM     35  H   UNL     1      17.197  -4.499  13.806  1.00  0.00     0.164 HD
ATOM     36  O   UNL     1      14.963  -6.610  14.939  1.00  0.00    -0.268 OA
BRANCH  34  37
ATOM     37  C   UNL     1      15.769  -6.470  12.739  1.00  0.00     0.123 A 
ATOM     38  C   UNL     1      16.586  -7.434  12.205  1.00  0.00     0.058 A 
ATOM     39  N   UNL     1      14.990  -6.017  11.745  1.00  0.00    -0.273 N 
ATOM     40  C   UNL     1      16.273  -7.549  10.849  1.00  0.00     0.060 A 
ATOM     41  N   UNL     1      15.292  -6.652  10.642  1.00  0.00    -0.180 NA
ATOM     42  H   UNL     1      14.260  -5.279  11.823  1.00  0.00     0.190 HD
ATOM     43  C   UNL     1      16.874  -8.463   9.840  1.00  0.00     0.069 C 
ENDBRANCH  34  37
ENDBRANCH   8  33
ENDBRANCH   5   8
ENDBRANCH   3   4
ENDBRANCH   2   3
ENDBRANCH   1   2
BRANCH   1  44
ATOM     44  C   UNL     1      22.854  -0.742  15.346  1.00  0.00     0.000 C 
BRANCH  44  45
ATOM     45  C   UNL     1      23.702   0.126  16.144  1.00  0.00     0.000 C 
BRANCH  45  46
ATOM     46  C   UNL     1      24.130   1.461  15.803  1.00  0.00     0.000 C 
BRANCH  46  47
ATOM     47  C   UNL     1      25.393   1.961  16.425  1.00  0.00     0.000 C 
BRANCH  47  48
ATOM     48  C   UNL     1      24.980   3.251  17.149  1.00  0.00     0.000 C 
BRANCH  48  49
ATOM     49  C   UNL     1      25.464   4.454  16.466  1.00  0.00     0.000 C 
BRANCH  49  50
ATOM     50  C   UNL     1      25.972   5.535  17.524  1.00  0.00     0.001 C 
BRANCH  50  51
ATOM     51  C   UNL     1      25.632   6.825  17.143  1.00  0.00     0.009 C 
BRANCH  51  52
ATOM     52  C   UNL     1      26.045   8.221  16.857  1.00  0.00    -0.012 C 
BRANCH  52  53
ATOM     53  C   UNL     1      26.949   8.661  18.028  1.00  0.00    -0.018 C 
ATOM     54  C   UNL     1      28.187   7.948  18.287  1.00  0.00     0.033 C 
ATOM     55  C   UNL     1      27.192  10.098  18.163  1.00  0.00     0.033 C 
ATOM     56  C   UNL     1      26.092   8.515  19.318  1.00  0.00     0.033 C 
ATOM     57  C   UNL     1      28.829   8.212  19.641  1.00  0.00     0.101 C 
ATOM     58  C   UNL     1      28.068  10.502  19.307  1.00  0.00     0.101 C 
ATOM     59  C   UNL     1      26.852   9.004  20.566  1.00  0.00     0.101 C 
ATOM     60  C   UNL     1      29.242   9.697  19.633  1.00  0.00     0.051 C 
ATOM     61  C   UNL     1      27.963   8.030  20.794  1.00  0.00     0.051 C 
ATOM     62  C   UNL     1      27.195  10.428  20.575  1.00  0.00     0.051 C 
BRANCH  57  63
ATOM     63  S   UNL     1      30.356   7.292  19.671  1.00  0.00     0.270 S 
ATOM     64  O   UNL     1      30.387   6.394  20.870  1.00  0.00    -0.199 OA
ATOM     65  O   UNL     1      31.526   8.242  19.807  1.00  0.00    -0.199 OA
BRANCH  63  66
ATOM     66  O   UNL     1      30.544   6.410  18.237  1.00  0.00    -0.285 OA
ATOM     67  H   UNL     1      29.738   6.618  17.677  1.00  0.00     0.234 HD
ENDBRANCH  63  66
ENDBRANCH  57  63
BRANCH  58  68
ATOM     68  S   UNL     1      28.532  12.214  19.177  1.00  0.00     0.270 S 
ATOM     69  O   UNL     1      30.039  12.315  19.044  1.00  0.00    -0.199 OA
ATOM     70  O   UNL     1      28.179  12.972  20.433  1.00  0.00    -0.199 OA
BRANCH  68  71
ATOM     71  O   UNL     1      27.767  12.957  17.888  1.00  0.00    -0.285 OA
ATOM     72  H   UNL     1      27.342  12.243  17.348  1.00  0.00     0.234 HD
ENDBRANCH  68  71
ENDBRANCH  58  68
BRANCH  59  73
ATOM     73  S   UNL     1      25.705   8.751  21.933  1.00  0.00     0.270 S 
ATOM     74  O   UNL     1      24.536   9.687  21.793  1.00  0.00    -0.199 OA
ATOM     75  O   UNL     1      25.160   7.356  21.939  1.00  0.00    -0.199 OA
BRANCH  73  76
ATOM     76  O   UNL     1      26.427   9.025  23.396  1.00  0.00    -0.285 OA
ATOM     77  H   UNL     1      26.921   9.857  23.423  1.00  0.00     0.234 HD
ENDBRANCH  73  76
ENDBRANCH  59  73
ENDBRANCH  52  53
BRANCH  52  78
ATOM     78  C   UNL     1      24.735   8.991  16.824  1.00  0.00    -0.018 C 
ATOM     79  C   UNL     1      23.878   8.788  18.074  1.00  0.00     0.033 C 
ATOM     80  C   UNL     1      23.690   8.354  15.919  1.00  0.00     0.033 C 
ATOM     81  C   UNL     1      24.768  10.445  16.827  1.00  0.00     0.033 C 
ATOM     82  C   UNL     1      22.529   9.518  17.994  1.00  0.00     0.101 C 
ATOM     83  C   UNL     1      22.423   9.154  15.745  1.00  0.00     0.101 C 
ATOM     84  C   UNL     1      23.405  11.127  16.543  1.00  0.00     0.101 C 
ATOM     85  C   UNL     1      21.596   8.990  16.983  1.00  0.00     0.051 C 
ATOM     86  C   UNL     1      22.600  10.988  17.820  1.00  0.00     0.051 C 
ATOM     87  C   UNL     1      22.736  10.558  15.371  1.00  0.00     0.051 C 
BRANCH  82  88
ATOM     88  S   UNL     1      21.770   9.224  19.594  1.00  0.00     0.270 S 
ATOM     89  O   UNL     1      21.876  10.471  20.450  1.00  0.00    -0.199 OA
ATOM     90  O   UNL     1      20.329   8.841  19.380  1.00  0.00    -0.199 OA
BRANCH  88  91
ATOM     91  O   UNL     1      22.582   7.972  20.327  1.00  0.00    -0.285 OA
ATOM     92  H   UNL     1      22.144   7.118  20.086  1.00  0.00     0.234 HD
ENDBRANCH  88  91
ENDBRANCH  82  88
BRANCH  83  93
ATOM     93  S   UNL     1      21.386   8.495  14.452  1.00  0.00     0.270 S 
ATOM     94  O   UNL     1      21.312   9.527  13.364  1.00  0.00    -0.199 OA
ATOM     95  O   UNL     1      19.995   8.241  14.926  1.00  0.00    -0.199 OA
BRANCH  93  96
ATOM     96  O   UNL     1      22.111   7.110  13.846  1.00  0.00    -0.285 OA
ATOM     97  H   UNL     1      22.328   7.282  12.896  1.00  0.00     0.234 HD
ENDBRANCH  93  96
ENDBRANCH  83  93
BRANCH  84  98
ATOM     98  S   UNL     1      23.657  12.873  16.296  1.00  0.00     0.270 S 
ATOM     99  O   UNL     1      25.074  13.192  16.685  1.00  0.00    -0.199 OA
ATOM    100  O   UNL     1      23.334  13.301  14.912  1.00  0.00    -0.199 OA
BRANCH  98 101
ATOM    101  O   UNL     1      22.655  13.640  17.436  1.00  0.00    -0.285 OA
ATOM    102  H   UNL     1      22.484  13.039  18.212  1.00  0.00     0.234 HD
ENDBRANCH  98 101
ENDBRANCH  84  98
ENDBRANCH  52  78
BRANCH  52 103
ATOM    103  C   UNL     1      26.844   8.224  15.564  1.00  0.00    -0.018 C 
ATOM    104  C   UNL     1      26.925   9.424  14.740  1.00  0.00     0.033 C 
ATOM    105  C   UNL     1      28.105   7.413  15.600  1.00  0.00     0.033 C 
ATOM    106  C   UNL     1      26.115   7.284  14.523  1.00  0.00     0.033 C 
ATOM    107  C   UNL     1      27.842   9.298  13.498  1.00  0.00     0.101 C 
ATOM    108  C   UNL     1      28.889   7.391  14.296  1.00  0.00     0.101 C 
ATOM    109  C   UNL     1      26.832   7.229  13.195  1.00  0.00     0.101 C 
ATOM    110  C   UNL     1      29.172   8.770  13.857  1.00  0.00     0.051 C 
ATOM    111  C   UNL     1      27.043   8.520  12.506  1.00  0.00     0.051 C 
ATOM    112  C   UNL     1      28.187   6.556  13.247  1.00  0.00     0.051 C 
BRANCH 107 113
ATOM    113  S   UNL     1      28.063  10.913  12.759  1.00  0.00     0.270 S 
ATOM    114  O   UNL     1      27.828  11.924  13.870  1.00  0.00    -0.199 OA
ATOM    115  O   UNL     1      29.488  11.025  12.350  1.00  0.00    -0.199 OA
BRANCH 113 116
ATOM    116  O   UNL     1      26.977  11.152  11.513  1.00  0.00    -0.285 OA
ATOM    117  H   UNL     1      27.426  10.945  10.648  1.00  0.00     0.234 HD
ENDBRANCH 113 116
ENDBRANCH 107 113
BRANCH 108 118
ATOM    118  S   UNL     1      30.425   6.551  14.624  1.00  0.00     0.270 S 
ATOM    119  O   UNL     1      30.191   5.343  15.459  1.00  0.00    -0.199 OA
ATOM    120  O   UNL     1      31.295   7.525  15.388  1.00  0.00    -0.199 OA
BRANCH 118 121
ATOM    121  O   UNL     1      31.216   6.198  13.200  1.00  0.00    -0.285 OA
ATOM    122  H   UNL     1      30.896   6.801  12.491  1.00  0.00     0.234 HD
ENDBRANCH 118 121
ENDBRANCH 108 118
BRANCH 109 123
ATOM    123  S   UNL     1      25.796   6.220  12.130  1.00  0.00     0.270 S 
ATOM    124  O   UNL     1      24.360   6.276  12.557  1.00  0.00    -0.199 OA
ATOM    125  O   UNL     1      26.374   4.846  12.149  1.00  0.00    -0.199 OA
BRANCH 123 126
ATOM    126  O   UNL     1      25.962   6.829  10.577  1.00  0.00    -0.285 OA
ATOM    127  H   UNL     1      26.876   7.227  10.520  1.00  0.00     0.234 HD
ENDBRANCH 123 126
ENDBRANCH 109 123
ENDBRANCH  52 103
ENDBRANCH  51  52
ENDBRANCH  50  51
ENDBRANCH  49  50
ENDBRANCH  48  49
ENDBRANCH  47  48
ENDBRANCH  46  47
ENDBRANCH  45  46
ENDBRANCH  44  45
ENDBRANCH   1  44
TORSDOF 43
ENDMDL
MODEL 5
REMARK VINA RESULT:   -10.294      1.632      6.695
REMARK INTER + INTRA:         -41.599
REMARK INTER:                 -33.376
REMARK INTRA:                  -8.224
REMARK UNBOUND:                -8.138
REMARK SMILES Cc1cc(C(=O)N[C@H](CNC(=O)c2cccc(COc3ccccc3C(N)=O)c2)C(=O)NCCCCCCCCCCCC([C@]23C[C@]4(S(=O)(=O)O)C[C@](S(=O)(=O)O)(C2)C[C@](S(=O)(=O)O)(C3)C4)([C@]23C[C@]4(S(=O)(=O)O)C[C@](S(=O)(=O)O)(C2)C[C@](S(=O)(=O)O)(C3)C4)[C@]23C[C@]4(S(=O)(=O)O)C[C@](S(=O)(=O)O)(C2)C[C@](S(=O)(=O)O)(C3)C4)[nH]n1
REMARK SMILES IDX 35 1 34 2 33 3 32 4 30 5 31 6 8 8 9 9 10 10 12 11 11 12
REMARK SMILES IDX 13 14 14 15 29 16 15 17 17 18 16 19 18 20 19 21 20 22 25 23
REMARK SMILES IDX 21 24 24 25 22 26 23 27 26 28 27 29 28 30 7 33 5 34 6 36
REMARK SMILES IDX 4 37 3 38 111 39 2 40 112 41 1 43 36 44 37 45 38 46 39 47
REMARK SMILES IDX 40 48 41 49 42 50 43 51 44 52 67 53 80 54 87 55 68 56 75 57
REMARK SMILES IDX 82 58 69 59 81 60 74 61 88 62 76 63 77 64 78 65 79 66 83 68
REMARK SMILES IDX 84 69 85 70 86 71 70 73 71 74 72 75 73 76 45 78 46 79 58 80
REMARK SMILES IDX 65 81 47 82 53 83 60 84 52 85 66 86 59 87 48 88 49 89 50 90
REMARK SMILES IDX 51 91 54 93 55 94 56 95 57 96 61 98 62 99 63 100 64 101
REMARK SMILES IDX 89 103 102 104 109 105 90 106 97 107 104 108 91 109 103 110
REMARK SMILES IDX 96 111 110 112 98 113 99 114 100 115 101 116 105 118 106 119
REMARK SMILES IDX 107 120 108 121 92 123 93 124 94 125 95 126
REMARK H PARENT 32 7 10 13 27 31 27 32 7 35 111 42 79 67 86 72 73 77 51 92
REMARK H PARENT 57 97 64 102 101 117 108 122 95 127
REMARK Flexibility Score: inf
ROOT
ATOM      1  C   UNL     1      21.547  -2.238  16.227  1.00  0.00     0.002 C 
ENDROOT
BRANCH   1   2
ATOM      2  C   UNL     1      20.394  -3.082  16.642  1.00  0.00     0.021 C 
BRANCH   2   3
ATOM      3  C   UNL     1      20.281  -4.381  15.909  1.00  0.00     0.116 C 
BRANCH   3   4
ATOM      4  N   UNL     1      19.173  -4.519  15.049  1.00  0.00    -0.354 N 
ATOM      5  C   UNL     1      17.814  -4.753  15.238  1.00  0.00     0.244 C 
ATOM      6  O   UNL     1      17.329  -4.876  16.399  1.00  0.00    -0.273 OA
ATOM      7  H   UNL     1      19.432  -4.421  13.987  1.00  0.00     0.163 HD
BRANCH   5   8
ATOM      8  C   UNL     1      16.790  -4.887  14.175  1.00  0.00     0.191 C 
BRANCH   8   9
ATOM      9  C   UNL     1      16.518  -3.608  13.472  1.00  0.00     0.151 C 
BRANCH   9  10
ATOM     10  N   UNL     1      17.374  -2.572  14.059  1.00  0.00    -0.349 N 
ATOM     11  O   UNL     1      16.134  -0.759  13.310  1.00  0.00    -0.269 OA
ATOM     12  C   UNL     1      17.098  -1.225  13.924  1.00  0.00     0.251 C 
ATOM     13  H   UNL     1      18.231  -2.919  14.606  1.00  0.00     0.163 HD
BRANCH  12  14
ATOM     14  C   UNL     1      18.021  -0.247  14.545  1.00  0.00     0.040 A 
ATOM     15  C   UNL     1      18.738   0.648  13.796  1.00  0.00     0.014 A 
ATOM     16  C   UNL     1      18.115  -0.267  15.917  1.00  0.00     0.021 A 
ATOM     17  C   UNL     1      19.579   1.552  14.435  1.00  0.00     0.001 A 
ATOM     18  C   UNL     1      18.954   0.634  16.564  1.00  0.00    -0.010 A 
ATOM     19  C   UNL     1      19.674   1.530  15.818  1.00  0.00     0.007 A 
BRANCH  18  20
ATOM     20  C   UNL     1      18.997   0.576  18.035  1.00  0.00     0.265 C 
BRANCH  20  21
ATOM     21  O   UNL     1      18.918   1.800  18.646  1.00  0.00    -0.488 OA
BRANCH  21  22
ATOM     22  C   UNL     1      19.702   2.303  19.627  1.00  0.00     0.132 A 
ATOM     23  C   UNL     1      19.071   2.803  20.763  1.00  0.00     0.081 A 
ATOM     24  C   UNL     1      21.065   2.369  19.618  1.00  0.00     0.047 A 
ATOM     25  C   UNL     1      19.780   3.326  21.805  1.00  0.00     0.018 A 
ATOM     26  C   UNL     1      21.792   2.892  20.658  1.00  0.00     0.004 A 
ATOM     27  C   UNL     1      21.149   3.388  21.789  1.00  0.00     0.001 A 
BRANCH  23  28
ATOM     28  C   UNL     1      17.594   2.780  20.809  1.00  0.00     0.252 C 
ATOM     29  N   UNL     1      16.921   2.023  21.801  1.00  0.00    -0.365 N 
ATOM     30  O   UNL     1      16.984   3.433  19.951  1.00  0.00    -0.269 OA
ATOM     31  H   UNL     1      16.857   0.978  21.622  1.00  0.00     0.159 HD
ATOM     32  H   UNL     1      16.509   2.434  22.648  1.00  0.00     0.159 HD
ENDBRANCH  23  28
ENDBRANCH  21  22
ENDBRANCH  20  21
ENDBRANCH  18  20
ENDBRANCH  12  14
ENDBRANCH   9  10
ENDBRANCH   8   9
BRANCH   8  33
ATOM     33  N   UNL     1      17.243  -5.953  13.305  1.00  0.00    -0.337 N 
ATOM     34  C   UNL     1      16.476  -7.093  13.055  1.00  0.00     0.270 C 
ATOM     35  H   UNL     1      18.184  -5.833  12.857  1.00  0.00     0.164 HD
ATOM     36  O   UNL     1      15.342  -7.309  13.552  1.00  0.00    -0.268 OA
BRANCH  34  37
ATOM     37  C   UNL     1      17.032  -8.118  12.137  1.00  0.00     0.123 A 
ATOM     38  C   UNL     1      16.778  -8.239  10.794  1.00  0.00     0.058 A 
ATOM     39  N   UNL     1      17.886  -9.098  12.467  1.00  0.00    -0.273 N 
ATOM     40  C   UNL     1      17.511  -9.330  10.323  1.00  0.00     0.060 A 
ATOM     41  N   UNL     1      18.160  -9.804  11.401  1.00  0.00    -0.180 NA
ATOM     42  H   UNL     1      18.275  -9.282  13.416  1.00  0.00     0.190 HD
ATOM     43  C   UNL     1      17.580  -9.861   8.933  1.00  0.00     0.069 C 
ENDBRANCH  34  37
ENDBRANCH   8  33
ENDBRANCH   5   8
ENDBRANCH   3   4
ENDBRANCH   2   3
ENDBRANCH   1   2
BRANCH   1  44
ATOM     44  C   UNL     1      22.055  -1.284  17.228  1.00  0.00     0.000 C 
BRANCH  44  45
ATOM     45  C   UNL     1      23.147  -0.371  16.939  1.00  0.00     0.000 C 
BRANCH  45  46
ATOM     46  C   UNL     1      23.556   0.760  17.735  1.00  0.00     0.000 C 
BRANCH  46  47
ATOM     47  C   UNL     1      23.756   2.063  17.033  1.00  0.00     0.000 C 
BRANCH  47  48
ATOM     48  C   UNL     1      24.747   2.830  17.920  1.00  0.00     0.000 C 
BRANCH  48  49
ATOM     49  C   UNL     1      25.225   4.063  17.286  1.00  0.00     0.000 C 
BRANCH  49  50
ATOM     50  C   UNL     1      25.888   5.030  18.368  1.00  0.00     0.001 C 
BRANCH  50  51
ATOM     51  C   UNL     1      25.802   6.362  17.987  1.00  0.00     0.009 C 
BRANCH  51  52
ATOM     52  C   UNL     1      26.469   7.595  17.502  1.00  0.00    -0.012 C 
BRANCH  52  53
ATOM     53  C   UNL     1      27.988   7.352  17.628  1.00  0.00    -0.018 C 
ATOM     54  C   UNL     1      28.617   7.398  18.936  1.00  0.00     0.033 C 
ATOM     55  C   UNL     1      28.533   6.218  16.880  1.00  0.00     0.033 C 
ATOM     56  C   UNL     1      28.678   8.458  16.780  1.00  0.00     0.033 C 
ATOM     57  C   UNL     1      30.135   7.497  18.934  1.00  0.00     0.101 C 
ATOM     58  C   UNL     1      30.008   6.003  17.014  1.00  0.00     0.101 C 
ATOM     59  C   UNL     1      30.208   8.283  16.750  1.00  0.00     0.101 C 
ATOM     60  C   UNL     1      30.645   6.180  18.316  1.00  0.00     0.051 C 
ATOM     61  C   UNL     1      30.695   8.573  18.134  1.00  0.00     0.051 C 
ATOM     62  C   UNL     1      30.688   7.054  16.115  1.00  0.00     0.051 C 
BRANCH  57  63
ATOM     63  S   UNL     1      30.653   7.456  20.640  1.00  0.00     0.270 S 
ATOM     64  O   UNL     1      30.634   6.045  21.145  1.00  0.00    -0.199 OA
ATOM     65  O   UNL     1      29.677   8.238  21.492  1.00  0.00    -0.199 OA
BRANCH  63  66
ATOM     66  O   UNL     1      32.189   8.149  20.810  1.00  0.00    -0.285 OA
ATOM     67  H   UNL     1      32.143   9.038  20.346  1.00  0.00     0.234 HD
ENDBRANCH  63  66
ENDBRANCH  57  63
BRANCH  58  68
ATOM     68  S   UNL     1      30.486   4.437  16.320  1.00  0.00     0.270 S 
ATOM     69  O   UNL     1      29.247   3.695  15.859  1.00  0.00    -0.199 OA
ATOM     70  O   UNL     1      31.130   3.553  17.359  1.00  0.00    -0.199 OA
BRANCH  68  71
ATOM     71  O   UNL     1      31.568   4.632  15.060  1.00  0.00    -0.285 OA
ATOM     72  H   UNL     1      32.457   4.808  15.462  1.00  0.00     0.234 HD
ENDBRANCH  68  71
ENDBRANCH  58  68
BRANCH  59  73
ATOM     73  S   UNL     1      30.809   9.646  15.735  1.00  0.00     0.270 S 
ATOM     74  O   UNL     1      32.002  10.281  16.396  1.00  0.00    -0.199 OA
ATOM     75  O   UNL     1      31.250   9.169  14.386  1.00  0.00    -0.199 OA
BRANCH  73  76
ATOM     76  O   UNL     1      29.650  10.804  15.515  1.00  0.00    -0.285 OA
ATOM     77  H   UNL     1      29.986  11.703  15.644  1.00  0.00     0.234 HD
ENDBRANCH  73  76
ENDBRANCH  59  73
ENDBRANCH  52  53
BRANCH  52  78
ATOM     78  C   UNL     1      25.981   8.674  18.453  1.00  0.00    -0.018 C 
ATOM     79  C   UNL     1      24.657   9.309  18.025  1.00  0.00     0.033 C 
ATOM     80  C   UNL     1      26.737   9.987  18.306  1.00  0.00     0.033 C 
ATOM     81  C   UNL     1      25.608   8.307  19.810  1.00  0.00     0.033 C 
ATOM     82  C   UNL     1      24.213  10.444  18.960  1.00  0.00     0.101 C 
ATOM     83  C   UNL     1      26.384  11.045  19.321  1.00  0.00     0.101 C 
ATOM     84  C   UNL     1      25.363   9.504  20.764  1.00  0.00     0.101 C 
ATOM     85  C   UNL     1      25.067  11.645  18.929  1.00  0.00     0.051 C 
ATOM     86  C   UNL     1      24.011  10.070  20.380  1.00  0.00     0.051 C 
ATOM     87  C   UNL     1      26.444  10.491  20.699  1.00  0.00     0.051 C 
BRANCH  82  88
ATOM     88  S   UNL     1      22.609  10.941  18.324  1.00  0.00     0.270 S 
ATOM     89  O   UNL     1      21.592   9.848  18.584  1.00  0.00    -0.199 OA
ATOM     90  O   UNL     1      22.201  12.225  18.999  1.00  0.00    -0.199 OA
BRANCH  88  91
ATOM     91  O   UNL     1      22.759  11.189  16.687  1.00  0.00    -0.285 OA
ATOM     92  H   UNL     1      23.667  10.918  16.401  1.00  0.00     0.234 HD
ENDBRANCH  88  91
ENDBRANCH  82  88
BRANCH  83  93
ATOM     93  S   UNL     1      27.510  12.427  19.271  1.00  0.00     0.270 S 
ATOM     94  O   UNL     1      28.283  12.425  20.558  1.00  0.00    -0.199 OA
ATOM     95  O   UNL     1      26.792  13.731  19.182  1.00  0.00    -0.199 OA
BRANCH  93  96
ATOM     96  O   UNL     1      28.570  12.200  17.993  1.00  0.00    -0.285 OA
ATOM     97  H   UNL     1      28.355  11.324  17.583  1.00  0.00     0.234 HD
ENDBRANCH  93  96
ENDBRANCH  83  93
BRANCH  84  98
ATOM     98  S   UNL     1      25.202   8.907  22.434  1.00  0.00     0.270 S 
ATOM     99  O   UNL     1      24.037   9.619  23.066  1.00  0.00    -0.199 OA
ATOM    100  O   UNL     1      25.070   7.430  22.497  1.00  0.00    -0.199 OA
BRANCH  98 101
ATOM    101  O   UNL     1      26.598   9.444  23.244  1.00  0.00    -0.285 OA
ATOM    102  H   UNL     1      27.016   8.695  23.752  1.00  0.00     0.234 HD
ENDBRANCH  98 101
ENDBRANCH  84  98
ENDBRANCH  52  78
BRANCH  52 103
ATOM    103  C   UNL     1      26.101   7.790  16.040  1.00  0.00    -0.018 C 
ATOM    104  C   UNL     1      26.477   9.008  15.332  1.00  0.00     0.033 C 
ATOM    105  C   UNL     1      26.159   6.546  15.203  1.00  0.00     0.033 C 
ATOM    106  C   UNL     1      24.531   7.943  15.935  1.00  0.00     0.033 C 
ATOM    107  C   UNL     1      26.107   9.025  13.828  1.00  0.00     0.101 C 
ATOM    108  C   UNL     1      25.761   6.735  13.747  1.00  0.00     0.101 C 
ATOM    109  C   UNL     1      24.067   8.153  14.513  1.00  0.00     0.101 C 
ATOM    110  C   UNL     1      26.573   7.807  13.140  1.00  0.00     0.051 C 
ATOM    111  C   UNL     1      24.642   9.311  13.795  1.00  0.00     0.051 C 
ATOM    112  C   UNL     1      24.270   6.956  13.609  1.00  0.00     0.051 C 
BRANCH 107 113
ATOM    113  S   UNL     1      26.877  10.439  13.045  1.00  0.00     0.270 S 
ATOM    114  O   UNL     1      28.375  10.176  13.073  1.00  0.00    -0.199 OA
ATOM    115  O   UNL     1      26.454  10.443  11.620  1.00  0.00    -0.199 OA
BRANCH 113 116
ATOM    116  O   UNL     1      26.516  11.846  13.867  1.00  0.00    -0.285 OA
ATOM    117  H   UNL     1      26.922  11.802  14.777  1.00  0.00     0.234 HD
ENDBRANCH 113 116
ENDBRANCH 107 113
BRANCH 108 118
ATOM    118  S   UNL     1      26.095   5.199  12.910  1.00  0.00     0.270 S 
ATOM    119  O   UNL     1      26.149   5.409  11.438  1.00  0.00    -0.199 OA
ATOM    120  O   UNL     1      24.947   4.269  13.239  1.00  0.00    -0.199 OA
BRANCH 118 121
ATOM    121  O   UNL     1      27.484   4.495  13.505  1.00  0.00    -0.285 OA
ATOM    122  H   UNL     1      28.005   5.169  13.998  1.00  0.00     0.234 HD
ENDBRANCH 118 121
ENDBRANCH 108 118
BRANCH 109 123
ATOM    123  S   UNL     1      22.294   8.421  14.621  1.00  0.00     0.270 S 
ATOM    124  O   UNL     1      21.540   7.402  13.821  1.00  0.00    -0.199 OA
ATOM    125  O   UNL     1      22.047   9.826  14.186  1.00  0.00    -0.199 OA
BRANCH 123 126
ATOM    126  O   UNL     1      21.884   8.302  16.242  1.00  0.00    -0.285 OA
ATOM    127  H   UNL     1      22.741   8.266  16.753  1.00  0.00     0.234 HD
ENDBRANCH 123 126
ENDBRANCH 109 123
ENDBRANCH  52 103
ENDBRANCH  51  52
ENDBRANCH  50  51
ENDBRANCH  49  50
ENDBRANCH  48  49
ENDBRANCH  47  48
ENDBRANCH  46  47
ENDBRANCH  45  46
ENDBRANCH  44  45
ENDBRANCH   1  44
TORSDOF 43
ENDMDL
MODEL 6
REMARK VINA RESULT:   -10.151      2.074      5.608
REMARK INTER + INTRA:         -41.135
REMARK INTER:                 -30.632
REMARK INTRA:                 -10.503
REMARK UNBOUND:                -8.138
REMARK SMILES Cc1cc(C(=O)N[C@H](CNC(=O)c2cccc(COc3ccccc3C(N)=O)c2)C(=O)NCCCCCCCCCCCC([C@]23C[C@]4(S(=O)(=O)O)C[C@](S(=O)(=O)O)(C2)C[C@](S(=O)(=O)O)(C3)C4)([C@]23C[C@]4(S(=O)(=O)O)C[C@](S(=O)(=O)O)(C2)C[C@](S(=O)(=O)O)(C3)C4)[C@]23C[C@]4(S(=O)(=O)O)C[C@](S(=O)(=O)O)(C2)C[C@](S(=O)(=O)O)(C3)C4)[nH]n1
REMARK SMILES IDX 35 1 34 2 33 3 32 4 30 5 31 6 8 8 9 9 10 10 12 11 11 12
REMARK SMILES IDX 13 14 14 15 29 16 15 17 17 18 16 19 18 20 19 21 20 22 25 23
REMARK SMILES IDX 21 24 24 25 22 26 23 27 26 28 27 29 28 30 7 33 5 34 6 36
REMARK SMILES IDX 4 37 3 38 111 39 2 40 112 41 1 43 36 44 37 45 38 46 39 47
REMARK SMILES IDX 40 48 41 49 42 50 43 51 44 52 67 53 80 54 87 55 68 56 75 57
REMARK SMILES IDX 82 58 69 59 81 60 74 61 88 62 76 63 77 64 78 65 79 66 83 68
REMARK SMILES IDX 84 69 85 70 86 71 70 73 71 74 72 75 73 76 45 78 46 79 58 80
REMARK SMILES IDX 65 81 47 82 53 83 60 84 52 85 66 86 59 87 48 88 49 89 50 90
REMARK SMILES IDX 51 91 54 93 55 94 56 95 57 96 61 98 62 99 63 100 64 101
REMARK SMILES IDX 89 103 102 104 109 105 90 106 97 107 104 108 91 109 103 110
REMARK SMILES IDX 96 111 110 112 98 113 99 114 100 115 101 116 105 118 106 119
REMARK SMILES IDX 107 120 108 121 92 123 93 124 94 125 95 126
REMARK H PARENT 32 7 10 13 27 31 27 32 7 35 111 42 79 67 86 72 73 77 51 92
REMARK H PARENT 57 97 64 102 101 117 108 122 95 127
REMARK Flexibility Score: inf
ROOT
ATOM      1  C   UNL     1      19.419   1.851  18.639  1.00  0.00     0.002 C 
ENDROOT
BRANCH   1   2
ATOM      2  C   UNL     1      19.214   1.512  17.204  1.00  0.00     0.021 C 
BRANCH   2   3
ATOM      3  C   UNL     1      17.906   0.850  16.905  1.00  0.00     0.116 C 
BRANCH   3   4
ATOM      4  N   UNL     1      17.789   0.238  15.642  1.00  0.00    -0.354 N 
ATOM      5  C   UNL     1      16.999   0.461  14.518  1.00  0.00     0.244 C 
ATOM      6  O   UNL     1      16.161   1.407  14.488  1.00  0.00    -0.273 OA
ATOM      7  H   UNL     1      18.475  -0.608  15.503  1.00  0.00     0.163 HD
BRANCH   5   8
ATOM      8  C   UNL     1      17.015  -0.326  13.262  1.00  0.00     0.191 C 
BRANCH   8   9
ATOM      9  C   UNL     1      18.142   0.039  12.367  1.00  0.00     0.151 C 
BRANCH   9  10
ATOM     10  N   UNL     1      19.397  -0.246  13.072  1.00  0.00    -0.349 N 
ATOM     11  O   UNL     1      19.857   1.949  13.671  1.00  0.00    -0.269 OA
ATOM     12  C   UNL     1      20.147   0.749  13.670  1.00  0.00     0.251 C 
ATOM     13  H   UNL     1      19.701  -1.275  13.102  1.00  0.00     0.163 HD
BRANCH  12  14
ATOM     14  C   UNL     1      21.405   0.372  14.356  1.00  0.00     0.040 A 
ATOM     15  C   UNL     1      22.581   1.037  14.128  1.00  0.00     0.014 A 
ATOM     16  C   UNL     1      21.336  -0.671  15.248  1.00  0.00     0.021 A 
ATOM     17  C   UNL     1      23.727   0.648  14.811  1.00  0.00     0.001 A 
ATOM     18  C   UNL     1      22.479  -1.067  15.936  1.00  0.00    -0.010 A 
ATOM     19  C   UNL     1      23.657  -0.405  15.710  1.00  0.00     0.007 A 
BRANCH  18  20
ATOM     20  C   UNL     1      22.337  -2.179  16.892  1.00  0.00     0.265 C 
BRANCH  20  21
ATOM     21  O   UNL     1      21.312  -3.040  16.600  1.00  0.00    -0.488 OA
BRANCH  21  22
ATOM     22  C   UNL     1      20.131  -3.191  17.242  1.00  0.00     0.132 A 
ATOM     23  C   UNL     1      19.417  -4.365  17.010  1.00  0.00     0.081 A 
ATOM     24  C   UNL     1      19.561  -2.302  18.105  1.00  0.00     0.047 A 
ATOM     25  C   UNL     1      18.219  -4.606  17.617  1.00  0.00     0.018 A 
ATOM     26  C   UNL     1      18.356  -2.530  18.723  1.00  0.00     0.004 A 
ATOM     27  C   UNL     1      17.654  -3.708  18.485  1.00  0.00     0.001 A 
BRANCH  23  28
ATOM     28  C   UNL     1      19.979  -5.347  16.060  1.00  0.00     0.252 C 
ATOM     29  N   UNL     1      19.911  -5.111  14.663  1.00  0.00    -0.365 N 
ATOM     30  O   UNL     1      20.492  -6.372  16.531  1.00  0.00    -0.269 OA
ATOM     31  H   UNL     1      18.974  -5.313  14.205  1.00  0.00     0.159 HD
ATOM     32  H   UNL     1      20.702  -4.768  14.106  1.00  0.00     0.159 HD
ENDBRANCH  23  28
ENDBRANCH  21  22
ENDBRANCH  20  21
ENDBRANCH  18  20
ENDBRANCH  12  14
ENDBRANCH   9  10
ENDBRANCH   8   9
BRANCH   8  33
ATOM     33  N   UNL     1      17.002  -1.720  13.655  1.00  0.00    -0.337 N 
ATOM     34  C   UNL     1      15.823  -2.462  13.744  1.00  0.00     0.270 C 
ATOM     35  H   UNL     1      17.929  -2.163  13.869  1.00  0.00     0.164 HD
ATOM     36  O   UNL     1      14.677  -2.006  13.503  1.00  0.00    -0.268 OA
BRANCH  34  37
ATOM     37  C   UNL     1      15.925  -3.887  14.144  1.00  0.00     0.123 A 
ATOM     38  C   UNL     1      16.530  -4.896  13.437  1.00  0.00     0.058 A 
ATOM     39  N   UNL     1      15.448  -4.429  15.275  1.00  0.00    -0.273 N 
ATOM     40  C   UNL     1      16.401  -6.069  14.182  1.00  0.00     0.060 A 
ATOM     41  N   UNL     1      15.729  -5.706  15.289  1.00  0.00    -0.180 NA
ATOM     42  H   UNL     1      14.934  -3.927  16.029  1.00  0.00     0.190 HD
ATOM     43  C   UNL     1      16.900  -7.432  13.847  1.00  0.00     0.069 C 
ENDBRANCH  34  37
ENDBRANCH   8  33
ENDBRANCH   5   8
ENDBRANCH   3   4
ENDBRANCH   2   3
ENDBRANCH   1   2
BRANCH   1  44
ATOM     44  C   UNL     1      20.816   1.930  19.099  1.00  0.00     0.000 C 
BRANCH  44  45
ATOM     45  C   UNL     1      21.935   1.918  18.173  1.00  0.00     0.000 C 
BRANCH  45  46
ATOM     46  C   UNL     1      23.321   1.685  18.500  1.00  0.00     0.000 C 
BRANCH  46  47
ATOM     47  C   UNL     1      24.284   2.802  18.263  1.00  0.00     0.000 C 
BRANCH  47  48
ATOM     48  C   UNL     1      24.137   3.705  19.496  1.00  0.00     0.000 C 
BRANCH  48  49
ATOM     49  C   UNL     1      25.147   4.766  19.534  1.00  0.00     0.000 C 
BRANCH  49  50
ATOM     50  C   UNL     1      25.382   5.372  18.077  1.00  0.00     0.001 C 
BRANCH  50  51
ATOM     51  C   UNL     1      26.234   6.467  18.107  1.00  0.00     0.009 C 
BRANCH  51  52
ATOM     52  C   UNL     1      26.671   7.759  17.524  1.00  0.00    -0.012 C 
BRANCH  52  53
ATOM     53  C   UNL     1      26.142   7.789  16.075  1.00  0.00    -0.018 C 
ATOM     54  C   UNL     1      26.222   6.592  15.256  1.00  0.00     0.033 C 
ATOM     55  C   UNL     1      24.837   8.418  15.868  1.00  0.00     0.033 C 
ATOM     56  C   UNL     1      26.970   8.875  15.331  1.00  0.00     0.033 C 
ATOM     57  C   UNL     1      26.009   6.799  13.763  1.00  0.00     0.101 C 
ATOM     58  C   UNL     1      24.344   8.438  14.454  1.00  0.00     0.101 C 
ATOM     59  C   UNL     1      26.485   9.069  13.882  1.00  0.00     0.101 C 
ATOM     60  C   UNL     1      24.549   7.269  13.604  1.00  0.00     0.051 C 
ATOM     61  C   UNL     1      26.841   7.818  13.144  1.00  0.00     0.051 C 
ATOM     62  C   UNL     1      25.114   9.565  13.738  1.00  0.00     0.051 C 
BRANCH  57  63
ATOM     63  S   UNL     1      26.077   5.186  13.008  1.00  0.00     0.270 S 
ATOM     64  O   UNL     1      24.936   4.346  13.495  1.00  0.00    -0.199 OA
ATOM     65  O   UNL     1      27.350   4.478  13.422  1.00  0.00    -0.199 OA
BRANCH  63  66
ATOM     66  O   UNL     1      26.064   5.321  11.319  1.00  0.00    -0.285 OA
ATOM     67  H   UNL     1      26.516   4.495  10.972  1.00  0.00     0.234 HD
ENDBRANCH  63  66
ENDBRANCH  57  63
BRANCH  58  68
ATOM     68  S   UNL     1      22.640   8.940  14.384  1.00  0.00     0.270 S 
ATOM     69  O   UNL     1      21.770   7.837  14.955  1.00  0.00    -0.199 OA
ATOM     70  O   UNL     1      22.183   9.124  12.957  1.00  0.00    -0.199 OA
BRANCH  68  71
ATOM     71  O   UNL     1      22.392  10.379  15.199  1.00  0.00    -0.285 OA
ATOM     72  H   UNL     1      22.646  10.227  16.145  1.00  0.00     0.234 HD
ENDBRANCH  68  71
ENDBRANCH  58  68
BRANCH  59  73
ATOM     73  S   UNL     1      27.559  10.347  13.203  1.00  0.00     0.270 S 
ATOM     74  O   UNL     1      27.150  10.653  11.788  1.00  0.00    -0.199 OA
ATOM     75  O   UNL     1      27.452  11.622  13.981  1.00  0.00    -0.199 OA
BRANCH  73  76
ATOM     76  O   UNL     1      29.145   9.879  13.203  1.00  0.00    -0.285 OA
ATOM     77  H   UNL     1      29.254   8.917  13.236  1.00  0.00     0.234 HD
ENDBRANCH  73  76
ENDBRANCH  59  73
ENDBRANCH  52  53
BRANCH  52  78
ATOM     78  C   UNL     1      28.188   7.692  17.579  1.00  0.00    -0.018 C 
ATOM     79  C   UNL     1      28.756   6.366  17.072  1.00  0.00     0.033 C 
ATOM     80  C   UNL     1      28.725   7.465  18.985  1.00  0.00     0.033 C 
ATOM     81  C   UNL     1      28.967   8.589  16.741  1.00  0.00     0.033 C 
ATOM     82  C   UNL     1      30.285   6.289  17.198  1.00  0.00     0.101 C 
ATOM     83  C   UNL     1      30.227   7.528  19.113  1.00  0.00     0.101 C 
ATOM     84  C   UNL     1      30.486   8.613  17.051  1.00  0.00     0.101 C 
ATOM     85  C   UNL     1      30.794   6.246  18.580  1.00  0.00     0.051 C 
ATOM     86  C   UNL     1      31.047   7.331  16.469  1.00  0.00     0.051 C 
ATOM     87  C   UNL     1      30.755   8.766  18.482  1.00  0.00     0.051 C 
BRANCH  82  88
ATOM     88  S   UNL     1      30.714   4.716  16.446  1.00  0.00     0.270 S 
ATOM     89  O   UNL     1      31.811   4.919  15.420  1.00  0.00    -0.199 OA
ATOM     90  O   UNL     1      31.161   3.771  17.531  1.00  0.00    -0.199 OA
BRANCH  88  91
ATOM     91  O   UNL     1      29.355   4.114  15.701  1.00  0.00    -0.285 OA
ATOM     92  H   UNL     1      28.985   3.379  16.250  1.00  0.00     0.234 HD
ENDBRANCH  88  91
ENDBRANCH  82  88
BRANCH  83  93
ATOM     93  S   UNL     1      30.756   7.550  20.816  1.00  0.00     0.270 S 
ATOM     94  O   UNL     1      30.769   6.130  21.302  1.00  0.00    -0.199 OA
ATOM     95  O   UNL     1      29.814   8.313  21.684  1.00  0.00    -0.199 OA
BRANCH  93  96
ATOM     96  O   UNL     1      32.314   8.166  20.878  1.00  0.00    -0.285 OA
ATOM     97  H   UNL     1      32.323   8.999  20.342  1.00  0.00     0.234 HD
ENDBRANCH  93  96
ENDBRANCH  83  93
BRANCH  84  98
ATOM     98  S   UNL     1      31.252   9.948  16.154  1.00  0.00     0.270 S 
ATOM     99  O   UNL     1      30.184  10.957  15.832  1.00  0.00    -0.199 OA
ATOM    100  O   UNL     1      32.395  10.542  16.892  1.00  0.00    -0.199 OA
BRANCH  98 101
ATOM    101  O   UNL     1      31.748   9.274  14.674  1.00  0.00    -0.285 OA
ATOM    102  H   UNL     1      31.107   8.570  14.379  1.00  0.00     0.234 HD
ENDBRANCH  98 101
ENDBRANCH  84  98
ENDBRANCH  52  78
BRANCH  52 103
ATOM    103  C   UNL     1      26.032   8.881  18.325  1.00  0.00    -0.018 C 
ATOM    104  C   UNL     1      26.684  10.180  18.443  1.00  0.00     0.033 C 
ATOM    105  C   UNL     1      24.536   8.948  18.237  1.00  0.00     0.033 C 
ATOM    106  C   UNL     1      26.052   8.480  19.854  1.00  0.00     0.033 C 
ATOM    107  C   UNL     1      25.873  11.247  19.221  1.00  0.00     0.101 C 
ATOM    108  C   UNL     1      23.893  10.052  19.063  1.00  0.00     0.101 C 
ATOM    109  C   UNL     1      25.444   9.542  20.738  1.00  0.00     0.101 C 
ATOM    110  C   UNL     1      24.492  11.354  18.713  1.00  0.00     0.051 C 
ATOM    111  C   UNL     1      26.047  10.890  20.659  1.00  0.00     0.051 C 
ATOM    112  C   UNL     1      23.955   9.738  20.542  1.00  0.00     0.051 C 
BRANCH 107 113
ATOM    113  S   UNL     1      26.663  12.842  19.034  1.00  0.00     0.270 S 
ATOM    114  O   UNL     1      25.961  13.779  20.005  1.00  0.00    -0.199 OA
ATOM    115  O   UNL     1      28.069  12.698  19.494  1.00  0.00    -0.199 OA
BRANCH 113 116
ATOM    116  O   UNL     1      26.511  13.403  17.470  1.00  0.00    -0.285 OA
ATOM    117  H   UNL     1      25.559  13.320  17.187  1.00  0.00     0.234 HD
ENDBRANCH 113 116
ENDBRANCH 107 113
BRANCH 108 118
ATOM    118  S   UNL     1      22.161  10.073  18.652  1.00  0.00     0.270 S 
ATOM    119  O   UNL     1      21.809  11.331  17.940  1.00  0.00    -0.199 OA
ATOM    120  O   UNL     1      21.405  10.013  19.962  1.00  0.00    -0.199 OA
BRANCH 118 121
ATOM    121  O   UNL     1      21.747   8.712  17.783  1.00  0.00    -0.285 OA
ATOM    122  H   UNL     1      20.838   8.429  18.034  1.00  0.00     0.234 HD
ENDBRANCH 118 121
ENDBRANCH 108 118
BRANCH 109 123
ATOM    123  S   UNL     1      25.669   8.956  22.421  1.00  0.00     0.270 S 
ATOM    124  O   UNL     1      25.490   7.470  22.508  1.00  0.00    -0.199 OA
ATOM    125  O   UNL     1      24.716   9.725  23.272  1.00  0.00    -0.199 OA
BRANCH 123 126
ATOM    126  O   UNL     1      27.226   9.378  22.876  1.00  0.00    -0.285 OA
ATOM    127  H   UNL     1      27.173  10.298  23.263  1.00  0.00     0.234 HD
ENDBRANCH 123 126
ENDBRANCH 109 123
ENDBRANCH  52 103
ENDBRANCH  51  52
ENDBRANCH  50  51
ENDBRANCH  49  50
ENDBRANCH  48  49
ENDBRANCH  47  48
ENDBRANCH  46  47
ENDBRANCH  45  46
ENDBRANCH  44  45
ENDBRANCH   1  44
TORSDOF 43
ENDMDL
MODEL 7
REMARK VINA RESULT:   -10.150      1.035      5.791
REMARK INTER + INTRA:         -41.132
REMARK INTER:                 -33.224
REMARK INTRA:                  -7.908
REMARK UNBOUND:                -8.138
REMARK SMILES Cc1cc(C(=O)N[C@H](CNC(=O)c2cccc(COc3ccccc3C(N)=O)c2)C(=O)NCCCCCCCCCCCC([C@]23C[C@]4(S(=O)(=O)O)C[C@](S(=O)(=O)O)(C2)C[C@](S(=O)(=O)O)(C3)C4)([C@]23C[C@]4(S(=O)(=O)O)C[C@](S(=O)(=O)O)(C2)C[C@](S(=O)(=O)O)(C3)C4)[C@]23C[C@]4(S(=O)(=O)O)C[C@](S(=O)(=O)O)(C2)C[C@](S(=O)(=O)O)(C3)C4)[nH]n1
REMARK SMILES IDX 35 1 34 2 33 3 32 4 30 5 31 6 8 8 9 9 10 10 12 11 11 12
REMARK SMILES IDX 13 14 14 15 29 16 15 17 17 18 16 19 18 20 19 21 20 22 25 23
REMARK SMILES IDX 21 24 24 25 22 26 23 27 26 28 27 29 28 30 7 33 5 34 6 36
REMARK SMILES IDX 4 37 3 38 111 39 2 40 112 41 1 43 36 44 37 45 38 46 39 47
REMARK SMILES IDX 40 48 41 49 42 50 43 51 44 52 67 53 80 54 87 55 68 56 75 57
REMARK SMILES IDX 82 58 69 59 81 60 74 61 88 62 76 63 77 64 78 65 79 66 83 68
REMARK SMILES IDX 84 69 85 70 86 71 70 73 71 74 72 75 73 76 45 78 46 79 58 80
REMARK SMILES IDX 65 81 47 82 53 83 60 84 52 85 66 86 59 87 48 88 49 89 50 90
REMARK SMILES IDX 51 91 54 93 55 94 56 95 57 96 61 98 62 99 63 100 64 101
REMARK SMILES IDX 89 103 102 104 109 105 90 106 97 107 104 108 91 109 103 110
REMARK SMILES IDX 96 111 110 112 98 113 99 114 100 115 101 116 105 118 106 119
REMARK SMILES IDX 107 120 108 121 92 123 93 124 94 125 95 126
REMARK H PARENT 32 7 10 13 27 31 27 32 7 35 111 42 79 67 86 72 73 77 51 92
REMARK H PARENT 57 97 64 102 101 117 108 122 95 127
REMARK Flexibility Score: inf
ROOT
ATOM      1  C   UNL     1      21.920  -1.918  16.308  1.00  0.00     0.002 C 
ENDROOT
BRANCH   1   2
ATOM      2  C   UNL     1      20.672  -2.527  16.842  1.00  0.00     0.021 C 
BRANCH   2   3
ATOM      3  C   UNL     1      20.294  -3.825  16.202  1.00  0.00     0.116 C 
BRANCH   3   4
ATOM      4  N   UNL     1      18.927  -4.006  15.914  1.00  0.00    -0.354 N 
ATOM      5  C   UNL     1      17.766  -4.059  16.680  1.00  0.00     0.244 C 
ATOM      6  O   UNL     1      17.806  -3.914  17.935  1.00  0.00    -0.273 OA
ATOM      7  H   UNL     1      18.721  -4.133  14.843  1.00  0.00     0.163 HD
BRANCH   5   8
ATOM      8  C   UNL     1      16.390  -4.281  16.176  1.00  0.00     0.191 C 
BRANCH   8   9
ATOM      9  C   UNL     1      15.646  -3.015  15.953  1.00  0.00     0.151 C 
BRANCH   9  10
ATOM     10  N   UNL     1      16.623  -1.938  15.763  1.00  0.00    -0.349 N 
ATOM     11  O   UNL     1      15.768  -1.169  13.747  1.00  0.00    -0.269 OA
ATOM     12  C   UNL     1      16.592  -1.101  14.663  1.00  0.00     0.251 C 
ATOM     13  H   UNL     1      17.367  -1.832  16.530  1.00  0.00     0.163 HD
BRANCH  12  14
ATOM     14  C   UNL     1      17.622  -0.043  14.549  1.00  0.00     0.040 A 
ATOM     15  C   UNL     1      17.755   0.717  13.417  1.00  0.00     0.014 A 
ATOM     16  C   UNL     1      18.433   0.153  15.641  1.00  0.00     0.021 A 
ATOM     17  C   UNL     1      18.731   1.706  13.372  1.00  0.00     0.001 A 
ATOM     18  C   UNL     1      19.413   1.141  15.603  1.00  0.00    -0.010 A 
ATOM     19  C   UNL     1      19.550   1.903  14.473  1.00  0.00     0.007 A 
BRANCH  18  20
ATOM     20  C   UNL     1      20.238   1.315  16.811  1.00  0.00     0.265 C 
BRANCH  20  21
ATOM     21  O   UNL     1      19.552   1.804  17.891  1.00  0.00    -0.488 OA
BRANCH  21  22
ATOM     22  C   UNL     1      20.032   2.149  19.108  1.00  0.00     0.132 A 
ATOM     23  C   UNL     1      19.108   2.374  20.125  1.00  0.00     0.081 A 
ATOM     24  C   UNL     1      21.345   2.298  19.445  1.00  0.00     0.047 A 
ATOM     25  C   UNL     1      19.500   2.722  21.385  1.00  0.00     0.018 A 
ATOM     26  C   UNL     1      21.755   2.648  20.708  1.00  0.00     0.004 A 
ATOM     27  C   UNL     1      20.822   2.868  21.716  1.00  0.00     0.001 A 
BRANCH  23  28
ATOM     28  C   UNL     1      17.671   2.254  19.803  1.00  0.00     0.252 C 
ATOM     29  N   UNL     1      17.240   2.233  18.451  1.00  0.00    -0.365 N 
ATOM     30  O   UNL     1      16.874   2.183  20.749  1.00  0.00    -0.269 OA
ATOM     31  H   UNL     1      17.195   3.176  17.966  1.00  0.00     0.159 HD
ATOM     32  H   UNL     1      16.982   1.375  17.950  1.00  0.00     0.159 HD
ENDBRANCH  23  28
ENDBRANCH  21  22
ENDBRANCH  20  21
ENDBRANCH  18  20
ENDBRANCH  12  14
ENDBRANCH   9  10
ENDBRANCH   8   9
BRANCH   8  33
ATOM     33  N   UNL     1      16.518  -5.106  14.993  1.00  0.00    -0.337 N 
ATOM     34  C   UNL     1      15.569  -6.068  14.643  1.00  0.00     0.270 C 
ATOM     35  H   UNL     1      17.364  -4.948  14.392  1.00  0.00     0.164 HD
ATOM     36  O   UNL     1      14.531  -6.315  15.307  1.00  0.00    -0.268 OA
BRANCH  34  37
ATOM     37  C   UNL     1      15.793  -6.849  13.402  1.00  0.00     0.123 A 
ATOM     38  C   UNL     1      15.757  -6.372  12.116  1.00  0.00     0.058 A 
ATOM     39  N   UNL     1      16.077  -8.158  13.329  1.00  0.00    -0.273 N 
ATOM     40  C   UNL     1      16.031  -7.441  11.261  1.00  0.00     0.060 A 
ATOM     41  N   UNL     1      16.213  -8.497  12.073  1.00  0.00    -0.180 NA
ATOM     42  H   UNL     1      16.174  -8.812  14.134  1.00  0.00     0.190 HD
ATOM     43  C   UNL     1      16.117  -7.433   9.774  1.00  0.00     0.069 C 
ENDBRANCH  34  37
ENDBRANCH   8  33
ENDBRANCH   5   8
ENDBRANCH   3   4
ENDBRANCH   2   3
ENDBRANCH   1   2
BRANCH   1  44
ATOM     44  C   UNL     1      22.704  -1.099  17.249  1.00  0.00     0.000 C 
BRANCH  44  45
ATOM     45  C   UNL     1      23.799  -0.252  16.809  1.00  0.00     0.000 C 
BRANCH  45  46
ATOM     46  C   UNL     1      24.233   0.981  17.419  1.00  0.00     0.000 C 
BRANCH  46  47
ATOM     47  C   UNL     1      24.962   1.959  16.558  1.00  0.00     0.000 C 
BRANCH  47  48
ATOM     48  C   UNL     1      25.162   3.188  17.456  1.00  0.00     0.000 C 
BRANCH  48  49
ATOM     49  C   UNL     1      25.430   4.406  16.685  1.00  0.00     0.000 C 
BRANCH  49  50
ATOM     50  C   UNL     1      26.037   5.544  17.624  1.00  0.00     0.001 C 
BRANCH  50  51
ATOM     51  C   UNL     1      25.602   6.806  17.248  1.00  0.00     0.009 C 
BRANCH  51  52
ATOM     52  C   UNL     1      25.921   8.200  16.851  1.00  0.00    -0.012 C 
BRANCH  52  53
ATOM     53  C   UNL     1      26.450   8.134  15.403  1.00  0.00    -0.018 C 
ATOM     54  C   UNL     1      25.712   7.385  14.401  1.00  0.00     0.033 C 
ATOM     55  C   UNL     1      26.902   9.395  14.814  1.00  0.00     0.033 C 
ATOM     56  C   UNL     1      27.856   7.475  15.482  1.00  0.00     0.033 C 
ATOM     57  C   UNL     1      26.467   7.083  13.115  1.00  0.00     0.101 C 
ATOM     58  C   UNL     1      27.414   9.308  13.410  1.00  0.00     0.101 C 
ATOM     59  C   UNL     1      28.540   7.422  14.103  1.00  0.00     0.101 C 
ATOM     60  C   UNL     1      26.732   8.447  12.448  1.00  0.00     0.051 C 
ATOM     61  C   UNL     1      27.762   6.445  13.281  1.00  0.00     0.051 C 
ATOM     62  C   UNL     1      28.837   8.722  13.498  1.00  0.00     0.051 C 
BRANCH  57  63
ATOM     63  S   UNL     1      25.324   6.238  12.038  1.00  0.00     0.270 S 
ATOM     64  O   UNL     1      24.019   6.972  12.002  1.00  0.00    -0.199 OA
ATOM     65  O   UNL     1      25.033   4.855  12.580  1.00  0.00    -0.199 OA
BRANCH  63  66
ATOM     66  O   UNL     1      25.982   6.078  10.485  1.00  0.00    -0.285 OA
ATOM     67  H   UNL     1      26.911   6.454  10.539  1.00  0.00     0.234 HD
ENDBRANCH  63  66
ENDBRANCH  57  63
BRANCH  58  68
ATOM     68  S   UNL     1      27.635  10.929  12.713  1.00  0.00     0.270 S 
ATOM     69  O   UNL     1      27.071  10.950  11.306  1.00  0.00    -0.199 OA
ATOM     70  O   UNL     1      29.098  11.269  12.574  1.00  0.00    -0.199 OA
BRANCH  68  71
ATOM     71  O   UNL     1      26.916  12.104  13.662  1.00  0.00    -0.285 OA
ATOM     72  H   UNL     1      26.006  12.257  13.301  1.00  0.00     0.234 HD
ENDBRANCH  68  71
ENDBRANCH  58  68
BRANCH  59  73
ATOM     73  S   UNL     1      30.131   6.631  14.407  1.00  0.00     0.270 S 
ATOM     74  O   UNL     1      30.971   7.506  15.296  1.00  0.00    -0.199 OA
ATOM     75  O   UNL     1      29.964   5.317  15.106  1.00  0.00    -0.199 OA
BRANCH  73  76
ATOM     76  O   UNL     1      30.959   6.360  13.001  1.00  0.00    -0.285 OA
ATOM     77  H   UNL     1      31.130   5.421  12.839  1.00  0.00     0.234 HD
ENDBRANCH  73  76
ENDBRANCH  59  73
ENDBRANCH  52  53
BRANCH  52  78
ATOM     78  C   UNL     1      26.998   8.624  17.835  1.00  0.00    -0.018 C 
ATOM     79  C   UNL     1      26.456   8.943  19.229  1.00  0.00     0.033 C 
ATOM     80  C   UNL     1      27.477  10.052  17.618  1.00  0.00     0.033 C 
ATOM     81  C   UNL     1      28.020   7.665  18.223  1.00  0.00     0.033 C 
ATOM     82  C   UNL     1      27.547   9.436  20.192  1.00  0.00     0.101 C 
ATOM     83  C   UNL     1      28.641  10.474  18.480  1.00  0.00     0.101 C 
ATOM     84  C   UNL     1      29.201   8.264  19.029  1.00  0.00     0.101 C 
ATOM     85  C   UNL     1      28.123  10.751  19.859  1.00  0.00     0.051 C 
ATOM     86  C   UNL     1      28.670   8.498  20.429  1.00  0.00     0.051 C 
ATOM     87  C   UNL     1      29.739   9.475  18.404  1.00  0.00     0.051 C 
BRANCH  82  88
ATOM     88  S   UNL     1      26.699   9.632  21.762  1.00  0.00     0.270 S 
ATOM     89  O   UNL     1      25.951   8.358  22.104  1.00  0.00    -0.199 OA
ATOM     90  O   UNL     1      27.718   9.957  22.822  1.00  0.00    -0.199 OA
BRANCH  88  91
ATOM     91  O   UNL     1      25.622  10.890  21.612  1.00  0.00    -0.285 OA
ATOM     92  H   UNL     1      24.900  10.624  20.988  1.00  0.00     0.234 HD
ENDBRANCH  88  91
ENDBRANCH  82  88
BRANCH  83  93
ATOM     93  S   UNL     1      29.328  12.036  17.964  1.00  0.00     0.270 S 
ATOM     94  O   UNL     1      30.765  12.063  18.401  1.00  0.00    -0.199 OA
ATOM     95  O   UNL     1      28.641  13.190  18.610  1.00  0.00    -0.199 OA
BRANCH  93  96
ATOM     96  O   UNL     1      29.261  12.116  16.290  1.00  0.00    -0.285 OA
ATOM     97  H   UNL     1      28.306  12.082  16.031  1.00  0.00     0.234 HD
ENDBRANCH  93  96
ENDBRANCH  83  93
BRANCH  84  98
ATOM     98  S   UNL     1      30.493   7.047  19.179  1.00  0.00     0.270 S 
ATOM     99  O   UNL     1      31.805   7.736  18.923  1.00  0.00    -0.199 OA
ATOM    100  O   UNL     1      30.462   6.347  20.488  1.00  0.00    -0.199 OA
BRANCH  98 101
ATOM    101  O   UNL     1      30.250   5.967  17.888  1.00  0.00    -0.285 OA
ATOM    102  H   UNL     1      30.960   5.268  17.879  1.00  0.00     0.234 HD
ENDBRANCH  98 101
ENDBRANCH  84  98
ENDBRANCH  52  78
BRANCH  52 103
ATOM    103  C   UNL     1      24.636   9.011  16.891  1.00  0.00    -0.018 C 
ATOM    104  C   UNL     1      24.674  10.462  17.021  1.00  0.00     0.033 C 
ATOM    105  C   UNL     1      23.538   8.498  16.006  1.00  0.00     0.033 C 
ATOM    106  C   UNL     1      23.879   8.683  18.239  1.00  0.00     0.033 C 
ATOM    107  C   UNL     1      23.289  11.156  16.963  1.00  0.00     0.101 C 
ATOM    108  C   UNL     1      22.242   9.291  16.069  1.00  0.00     0.101 C 
ATOM    109  C   UNL     1      22.587   9.452  18.376  1.00  0.00     0.101 C 
ATOM    110  C   UNL     1      22.511  10.715  15.790  1.00  0.00     0.051 C 
ATOM    111  C   UNL     1      22.687  10.926  18.309  1.00  0.00     0.051 C 
ATOM    112  C   UNL     1      21.519   9.060  17.378  1.00  0.00     0.051 C 
BRANCH 107 113
ATOM    113  S   UNL     1      23.519  12.927  16.848  1.00  0.00     0.270 S 
ATOM    114  O   UNL     1      22.759  13.531  18.018  1.00  0.00    -0.199 OA
ATOM    115  O   UNL     1      24.964  13.203  17.067  1.00  0.00    -0.199 OA
BRANCH 113 116
ATOM    116  O   UNL     1      22.925  13.513  15.402  1.00  0.00    -0.285 OA
ATOM    117  H   UNL     1      22.890  12.767  14.741  1.00  0.00     0.234 HD
ENDBRANCH 113 116
ENDBRANCH 107 113
BRANCH 108 118
ATOM    118  S   UNL     1      21.167   8.639  14.808  1.00  0.00     0.270 S 
ATOM    119  O   UNL     1      20.831   9.693  13.813  1.00  0.00    -0.199 OA
ATOM    120  O   UNL     1      19.902   8.191  15.507  1.00  0.00    -0.199 OA
BRANCH 118 121
ATOM    121  O   UNL     1      21.843   7.288  14.101  1.00  0.00    -0.285 OA
ATOM    122  H   UNL     1      22.104   7.501  13.176  1.00  0.00     0.234 HD
ENDBRANCH 118 121
ENDBRANCH 108 118
BRANCH 109 123
ATOM    123  S   UNL     1      21.949   9.036  20.003  1.00  0.00     0.270 S 
ATOM    124  O   UNL     1      21.733   7.559  20.141  1.00  0.00    -0.199 OA
ATOM    125  O   UNL     1      20.710   9.843  20.195  1.00  0.00    -0.199 OA
BRANCH 123 126
ATOM    126  O   UNL     1      23.086   9.561  21.117  1.00  0.00    -0.285 OA
ATOM    127  H   UNL     1      23.834   9.967  20.595  1.00  0.00     0.234 HD
ENDBRANCH 123 126
ENDBRANCH 109 123
ENDBRANCH  52 103
ENDBRANCH  51  52
ENDBRANCH  50  51
ENDBRANCH  49  50
ENDBRANCH  48  49
ENDBRANCH  47  48
ENDBRANCH  46  47
ENDBRANCH  45  46
ENDBRANCH  44  45
ENDBRANCH   1  44
TORSDOF 43
ENDMDL
MODEL 8
REMARK VINA RESULT:   -10.142      1.579      6.659
REMARK INTER + INTRA:         -41.105
REMARK INTER:                 -32.885
REMARK INTRA:                  -8.220
REMARK UNBOUND:                -8.138
REMARK SMILES Cc1cc(C(=O)N[C@H](CNC(=O)c2cccc(COc3ccccc3C(N)=O)c2)C(=O)NCCCCCCCCCCCC([C@]23C[C@]4(S(=O)(=O)O)C[C@](S(=O)(=O)O)(C2)C[C@](S(=O)(=O)O)(C3)C4)([C@]23C[C@]4(S(=O)(=O)O)C[C@](S(=O)(=O)O)(C2)C[C@](S(=O)(=O)O)(C3)C4)[C@]23C[C@]4(S(=O)(=O)O)C[C@](S(=O)(=O)O)(C2)C[C@](S(=O)(=O)O)(C3)C4)[nH]n1
REMARK SMILES IDX 35 1 34 2 33 3 32 4 30 5 31 6 8 8 9 9 10 10 12 11 11 12
REMARK SMILES IDX 13 14 14 15 29 16 15 17 17 18 16 19 18 20 19 21 20 22 25 23
REMARK SMILES IDX 21 24 24 25 22 26 23 27 26 28 27 29 28 30 7 33 5 34 6 36
REMARK SMILES IDX 4 37 3 38 111 39 2 40 112 41 1 43 36 44 37 45 38 46 39 47
REMARK SMILES IDX 40 48 41 49 42 50 43 51 44 52 67 53 80 54 87 55 68 56 75 57
REMARK SMILES IDX 82 58 69 59 81 60 74 61 88 62 76 63 77 64 78 65 79 66 83 68
REMARK SMILES IDX 84 69 85 70 86 71 70 73 71 74 72 75 73 76 45 78 46 79 58 80
REMARK SMILES IDX 65 81 47 82 53 83 60 84 52 85 66 86 59 87 48 88 49 89 50 90
REMARK SMILES IDX 51 91 54 93 55 94 56 95 57 96 61 98 62 99 63 100 64 101
REMARK SMILES IDX 89 103 102 104 109 105 90 106 97 107 104 108 91 109 103 110
REMARK SMILES IDX 96 111 110 112 98 113 99 114 100 115 101 116 105 118 106 119
REMARK SMILES IDX 107 120 108 121 92 123 93 124 94 125 95 126
REMARK H PARENT 32 7 10 13 27 31 27 32 7 35 111 42 79 67 86 72 73 77 51 92
REMARK H PARENT 57 97 64 102 101 117 108 122 95 127
REMARK Flexibility Score: inf
ROOT
ATOM      1  C   UNL     1      21.460  -2.219  16.156  1.00  0.00     0.002 C 
ENDROOT
BRANCH   1   2
ATOM      2  C   UNL     1      20.377  -3.099  16.673  1.00  0.00     0.021 C 
BRANCH   2   3
ATOM      3  C   UNL     1      20.247  -4.405  15.957  1.00  0.00     0.116 C 
BRANCH   3   4
ATOM      4  N   UNL     1      19.174  -4.517  15.049  1.00  0.00    -0.354 N 
ATOM      5  C   UNL     1      17.802  -4.707  15.180  1.00  0.00     0.244 C 
ATOM      6  O   UNL     1      17.262  -4.806  16.318  1.00  0.00    -0.273 OA
ATOM      7  H   UNL     1      19.483  -4.436  14.000  1.00  0.00     0.163 HD
BRANCH   5   8
ATOM      8  C   UNL     1      16.822  -4.819  14.072  1.00  0.00     0.191 C 
BRANCH   8   9
ATOM      9  C   UNL     1      16.466  -3.503  13.483  1.00  0.00     0.151 C 
BRANCH   9  10
ATOM     10  N   UNL     1      17.349  -2.487  14.066  1.00  0.00    -0.349 N 
ATOM     11  O   UNL     1      16.219  -0.648  13.213  1.00  0.00    -0.269 OA
ATOM     12  C   UNL     1      17.140  -1.134  13.876  1.00  0.00     0.251 C 
ATOM     13  H   UNL     1      18.169  -2.853  14.653  1.00  0.00     0.163 HD
BRANCH  12  14
ATOM     14  C   UNL     1      18.084  -0.178  14.497  1.00  0.00     0.040 A 
ATOM     15  C   UNL     1      18.859   0.666  13.745  1.00  0.00     0.014 A 
ATOM     16  C   UNL     1      18.139  -0.163  15.871  1.00  0.00     0.021 A 
ATOM     17  C   UNL     1      19.718   1.553  14.384  1.00  0.00     0.001 A 
ATOM     18  C   UNL     1      18.997   0.721  16.517  1.00  0.00    -0.010 A 
ATOM     19  C   UNL     1      19.774   1.566  15.769  1.00  0.00     0.007 A 
BRANCH  18  20
ATOM     20  C   UNL     1      18.997   0.702  17.991  1.00  0.00     0.265 C 
BRANCH  20  21
ATOM     21  O   UNL     1      19.093   1.941  18.566  1.00  0.00    -0.488 OA
BRANCH  21  22
ATOM     22  C   UNL     1      19.770   2.302  19.680  1.00  0.00     0.132 A 
ATOM     23  C   UNL     1      19.023   2.650  20.803  1.00  0.00     0.081 A 
ATOM     24  C   UNL     1      21.126   2.358  19.819  1.00  0.00     0.047 A 
ATOM     25  C   UNL     1      19.620   3.023  21.972  1.00  0.00     0.018 A 
ATOM     26  C   UNL     1      21.741   2.731  20.988  1.00  0.00     0.004 A 
ATOM     27  C   UNL     1      20.984   3.076  22.104  1.00  0.00     0.001 A 
BRANCH  23  28
ATOM     28  C   UNL     1      17.550   2.634  20.695  1.00  0.00     0.252 C 
ATOM     29  N   UNL     1      16.904   3.309  19.627  1.00  0.00    -0.365 N 
ATOM     30  O   UNL     1      16.917   2.024  21.568  1.00  0.00    -0.269 OA
ATOM     31  H   UNL     1      16.810   4.361  19.734  1.00  0.00     0.159 HD
ATOM     32  H   UNL     1      16.538   2.834  18.793  1.00  0.00     0.159 HD
ENDBRANCH  23  28
ENDBRANCH  21  22
ENDBRANCH  20  21
ENDBRANCH  18  20
ENDBRANCH  12  14
ENDBRANCH   9  10
ENDBRANCH   8   9
BRANCH   8  33
ATOM     33  N   UNL     1      17.384  -5.757  13.124  1.00  0.00    -0.337 N 
ATOM     34  C   UNL     1      16.610  -6.720  12.474  1.00  0.00     0.270 C 
ATOM     35  H   UNL     1      18.413  -5.684  12.935  1.00  0.00     0.164 HD
ATOM     36  O   UNL     1      15.374  -6.872  12.645  1.00  0.00    -0.268 OA
BRANCH  34  37
ATOM     37  C   UNL     1      17.286  -7.624  11.511  1.00  0.00     0.123 A 
ATOM     38  C   UNL     1      16.683  -8.414  10.565  1.00  0.00     0.058 A 
ATOM     39  N   UNL     1      18.609  -7.815  11.398  1.00  0.00    -0.273 N 
ATOM     40  C   UNL     1      17.690  -9.090   9.874  1.00  0.00     0.060 A 
ATOM     41  N   UNL     1      18.837  -8.675  10.440  1.00  0.00    -0.180 NA
ATOM     42  H   UNL     1      19.348  -7.360  11.975  1.00  0.00     0.190 HD
ATOM     43  C   UNL     1      17.547 -10.056   8.750  1.00  0.00     0.069 C 
ENDBRANCH  34  37
ENDBRANCH   8  33
ENDBRANCH   5   8
ENDBRANCH   3   4
ENDBRANCH   2   3
ENDBRANCH   1   2
BRANCH   1  44
ATOM     44  C   UNL     1      22.041  -1.263  17.116  1.00  0.00     0.000 C 
BRANCH  44  45
ATOM     45  C   UNL     1      22.983  -0.236  16.707  1.00  0.00     0.000 C 
BRANCH  45  46
ATOM     46  C   UNL     1      23.457   0.866  17.509  1.00  0.00     0.000 C 
BRANCH  46  47
ATOM     47  C   UNL     1      23.491   2.217  16.875  1.00  0.00     0.000 C 
BRANCH  47  48
ATOM     48  C   UNL     1      24.626   2.954  17.599  1.00  0.00     0.000 C 
BRANCH  48  49
ATOM     49  C   UNL     1      24.977   4.219  16.948  1.00  0.00     0.000 C 
BRANCH  49  50
ATOM     50  C   UNL     1      25.982   5.060  17.857  1.00  0.00     0.001 C 
BRANCH  50  51
ATOM     51  C   UNL     1      25.851   6.425  17.640  1.00  0.00     0.009 C 
BRANCH  51  52
ATOM     52  C   UNL     1      26.436   7.702  17.162  1.00  0.00    -0.012 C 
BRANCH  52  53
ATOM     53  C   UNL     1      27.968   7.518  17.181  1.00  0.00    -0.018 C 
ATOM     54  C   UNL     1      28.548   6.271  16.715  1.00  0.00     0.033 C 
ATOM     55  C   UNL     1      28.767   8.632  16.670  1.00  0.00     0.033 C 
ATOM     56  C   UNL     1      28.406   7.668  18.666  1.00  0.00     0.033 C 
ATOM     57  C   UNL     1      30.006   6.042  17.089  1.00  0.00     0.101 C 
ATOM     58  C   UNL     1      30.250   8.435  16.701  1.00  0.00     0.101 C 
ATOM     59  C   UNL     1      29.936   7.588  18.820  1.00  0.00     0.101 C 
ATOM     60  C   UNL     1      30.809   7.131  16.351  1.00  0.00     0.051 C 
ATOM     61  C   UNL     1      30.322   6.179  18.501  1.00  0.00     0.051 C 
ATOM     62  C   UNL     1      30.692   8.656  18.161  1.00  0.00     0.051 C 
BRANCH  57  63
ATOM     63  S   UNL     1      30.490   4.499  16.337  1.00  0.00     0.270 S 
ATOM     64  O   UNL     1      29.275   3.750  15.883  1.00  0.00    -0.199 OA
ATOM     65  O   UNL     1      31.187   3.626  17.358  1.00  0.00    -0.199 OA
BRANCH  63  66
ATOM     66  O   UNL     1      31.557   4.777  15.050  1.00  0.00    -0.285 OA
ATOM     67  H   UNL     1      32.252   5.411  15.400  1.00  0.00     0.234 HD
ENDBRANCH  63  66
ENDBRANCH  57  63
BRANCH  58  68
ATOM     68  S   UNL     1      31.080   9.709  15.779  1.00  0.00     0.270 S 
ATOM     69  O   UNL     1      30.115  10.309  14.775  1.00  0.00    -0.199 OA
ATOM     70  O   UNL     1      32.218   9.143  14.967  1.00  0.00    -0.199 OA
BRANCH  68  71
ATOM     71  O   UNL     1      31.698  10.889  16.791  1.00  0.00    -0.285 OA
ATOM     72  H   UNL     1      31.385  11.764  16.447  1.00  0.00     0.234 HD
ENDBRANCH  68  71
ENDBRANCH  58  68
BRANCH  59  73
ATOM     73  S   UNL     1      30.234   7.776  20.588  1.00  0.00     0.270 S 
ATOM     74  O   UNL     1      29.040   8.424  21.236  1.00  0.00    -0.199 OA
ATOM     75  O   UNL     1      30.435   6.449  21.253  1.00  0.00    -0.199 OA
BRANCH  73  76
ATOM     76  O   UNL     1      31.567   8.707  20.890  1.00  0.00    -0.285 OA
ATOM     77  H   UNL     1      31.720   8.850  21.835  1.00  0.00     0.234 HD
ENDBRANCH  73  76
ENDBRANCH  59  73
ENDBRANCH  52  53
BRANCH  52  78
ATOM     78  C   UNL     1      25.969   8.724  18.185  1.00  0.00    -0.018 C 
ATOM     79  C   UNL     1      24.639   9.385  17.820  1.00  0.00     0.033 C 
ATOM     80  C   UNL     1      26.726  10.042  18.101  1.00  0.00     0.033 C 
ATOM     81  C   UNL     1      25.621   8.278  19.524  1.00  0.00     0.033 C 
ATOM     82  C   UNL     1      24.216  10.464  18.828  1.00  0.00     0.101 C 
ATOM     83  C   UNL     1      26.395  11.040  19.183  1.00  0.00     0.101 C 
ATOM     84  C   UNL     1      25.398   9.418  20.551  1.00  0.00     0.101 C 
ATOM     85  C   UNL     1      25.073  11.663  18.852  1.00  0.00     0.051 C 
ATOM     86  C   UNL     1      24.040  10.007  20.227  1.00  0.00     0.051 C 
ATOM     87  C   UNL     1      26.480  10.405  20.524  1.00  0.00     0.051 C 
BRANCH  82  88
ATOM     88  S   UNL     1      22.602  11.000  18.254  1.00  0.00     0.270 S 
ATOM     89  O   UNL     1      22.626  11.182  16.750  1.00  0.00    -0.199 OA
ATOM     90  O   UNL     1      21.581   9.965  18.654  1.00  0.00    -0.199 OA
BRANCH  88  91
ATOM     91  O   UNL     1      22.249  12.450  18.988  1.00  0.00    -0.285 OA
ATOM     92  H   UNL     1      23.082  12.978  19.076  1.00  0.00     0.234 HD
ENDBRANCH  88  91
ENDBRANCH  82  88
BRANCH  83  93
ATOM     93  S   UNL     1      27.524  12.420  19.192  1.00  0.00     0.270 S 
ATOM     94  O   UNL     1      27.614  12.938  17.786  1.00  0.00    -0.199 OA
ATOM     95  O   UNL     1      28.897  12.017  19.611  1.00  0.00    -0.199 OA
BRANCH  93  96
ATOM     96  O   UNL     1      26.887  13.617  20.179  1.00  0.00    -0.285 OA
ATOM     97  H   UNL     1      26.153  14.053  19.678  1.00  0.00     0.234 HD
ENDBRANCH  93  96
ENDBRANCH  83  93
BRANCH  84  98
ATOM     98  S   UNL     1      25.267   8.724  22.187  1.00  0.00     0.270 S 
ATOM     99  O   UNL     1      24.102   9.382  22.873  1.00  0.00    -0.199 OA
ATOM    100  O   UNL     1      25.155   7.244  22.166  1.00  0.00    -0.199 OA
BRANCH  98 101
ATOM    101  O   UNL     1      26.667   9.232  23.008  1.00  0.00    -0.285 OA
ATOM    102  H   UNL     1      27.254   8.454  23.212  1.00  0.00     0.234 HD
ENDBRANCH  98 101
ENDBRANCH  84  98
ENDBRANCH  52  78
BRANCH  52 103
ATOM    103  C   UNL     1      25.966   7.935  15.736  1.00  0.00    -0.018 C 
ATOM    104  C   UNL     1      26.200   9.211  15.072  1.00  0.00     0.033 C 
ATOM    105  C   UNL     1      26.071   6.741  14.834  1.00  0.00     0.033 C 
ATOM    106  C   UNL     1      24.385   7.963  15.728  1.00  0.00     0.033 C 
ATOM    107  C   UNL     1      25.738   9.269  13.594  1.00  0.00     0.101 C 
ATOM    108  C   UNL     1      25.572   6.964  13.414  1.00  0.00     0.101 C 
ATOM    109  C   UNL     1      23.820   8.200  14.348  1.00  0.00     0.101 C 
ATOM    110  C   UNL     1      26.257   8.127  12.818  1.00  0.00     0.051 C 
ATOM    111  C   UNL     1      24.256   9.434  13.660  1.00  0.00     0.051 C 
ATOM    112  C   UNL     1      24.062   7.068  13.373  1.00  0.00     0.051 C 
BRANCH 107 113
ATOM    113  S   UNL     1      26.345  10.776  12.843  1.00  0.00     0.270 S 
ATOM    114  O   UNL     1      26.581  10.455  11.376  1.00  0.00    -0.199 OA
ATOM    115  O   UNL     1      25.248  11.778  12.907  1.00  0.00    -0.199 OA
BRANCH 113 116
ATOM    116  O   UNL     1      27.764  11.274  13.567  1.00  0.00    -0.285 OA
ATOM    117  H   UNL     1      27.560  12.011  14.207  1.00  0.00     0.234 HD
ENDBRANCH 113 116
ENDBRANCH 107 113
BRANCH 108 118
ATOM    118  S   UNL     1      25.975   5.502  12.481  1.00  0.00     0.270 S 
ATOM    119  O   UNL     1      25.979   5.800  11.023  1.00  0.00    -0.199 OA
ATOM    120  O   UNL     1      24.893   4.487  12.780  1.00  0.00    -0.199 OA
BRANCH 118 121
ATOM    121  O   UNL     1      27.418   4.851  13.003  1.00  0.00    -0.285 OA
ATOM    122  H   UNL     1      28.145   5.160  12.416  1.00  0.00     0.234 HD
ENDBRANCH 118 121
ENDBRANCH 108 118
BRANCH 109 123
ATOM    123  S   UNL     1      22.041   8.316  14.570  1.00  0.00     0.270 S 
ATOM    124  O   UNL     1      21.337   7.151  13.941  1.00  0.00    -0.199 OA
ATOM    125  O   UNL     1      21.626   9.637  14.015  1.00  0.00    -0.199 OA
BRANCH 123 126
ATOM    126  O   UNL     1      21.759   8.338  16.222  1.00  0.00    -0.285 OA
ATOM    127  H   UNL     1      21.844   9.289  16.516  1.00  0.00     0.234 HD
ENDBRANCH 123 126
ENDBRANCH 109 123
ENDBRANCH  52 103
ENDBRANCH  51  52
ENDBRANCH  50  51
ENDBRANCH  49  50
ENDBRANCH  48  49
ENDBRANCH  47  48
ENDBRANCH  46  47
ENDBRANCH  45  46
ENDBRANCH  44  45
ENDBRANCH   1  44
TORSDOF 43
ENDMDL
MODEL 9
REMARK VINA RESULT:   -10.141      1.090      6.078
REMARK INTER + INTRA:         -41.103
REMARK INTER:                 -33.068
REMARK INTRA:                  -8.035
REMARK UNBOUND:                -8.138
REMARK SMILES Cc1cc(C(=O)N[C@H](CNC(=O)c2cccc(COc3ccccc3C(N)=O)c2)C(=O)NCCCCCCCCCCCC([C@]23C[C@]4(S(=O)(=O)O)C[C@](S(=O)(=O)O)(C2)C[C@](S(=O)(=O)O)(C3)C4)([C@]23C[C@]4(S(=O)(=O)O)C[C@](S(=O)(=O)O)(C2)C[C@](S(=O)(=O)O)(C3)C4)[C@]23C[C@]4(S(=O)(=O)O)C[C@](S(=O)(=O)O)(C2)C[C@](S(=O)(=O)O)(C3)C4)[nH]n1
REMARK SMILES IDX 35 1 34 2 33 3 32 4 30 5 31 6 8 8 9 9 10 10 12 11 11 12
REMARK SMILES IDX 13 14 14 15 29 16 15 17 17 18 16 19 18 20 19 21 20 22 25 23
REMARK SMILES IDX 21 24 24 25 22 26 23 27 26 28 27 29 28 30 7 33 5 34 6 36
REMARK SMILES IDX 4 37 3 38 111 39 2 40 112 41 1 43 36 44 37 45 38 46 39 47
REMARK SMILES IDX 40 48 41 49 42 50 43 51 44 52 67 53 80 54 87 55 68 56 75 57
REMARK SMILES IDX 82 58 69 59 81 60 74 61 88 62 76 63 77 64 78 65 79 66 83 68
REMARK SMILES IDX 84 69 85 70 86 71 70 73 71 74 72 75 73 76 45 78 46 79 58 80
REMARK SMILES IDX 65 81 47 82 53 83 60 84 52 85 66 86 59 87 48 88 49 89 50 90
REMARK SMILES IDX 51 91 54 93 55 94 56 95 57 96 61 98 62 99 63 100 64 101
REMARK SMILES IDX 89 103 102 104 109 105 90 106 97 107 104 108 91 109 103 110
REMARK SMILES IDX 96 111 110 112 98 113 99 114 100 115 101 116 105 118 106 119
REMARK SMILES IDX 107 120 108 121 92 123 93 124 94 125 95 126
REMARK H PARENT 32 7 10 13 27 31 27 32 7 35 111 42 79 67 86 72 73 77 51 92
REMARK H PARENT 57 97 64 102 101 117 108 122 95 127
REMARK Flexibility Score: inf
ROOT
ATOM      1  C   UNL     1      21.854  -1.825  17.235  1.00  0.00     0.002 C 
ENDROOT
BRANCH   1   2
ATOM      2  C   UNL     1      20.983  -2.475  16.218  1.00  0.00     0.021 C 
BRANCH   2   3
ATOM      3  C   UNL     1      20.537  -3.856  16.579  1.00  0.00     0.116 C 
BRANCH   3   4
ATOM      4  N   UNL     1      19.239  -4.221  16.170  1.00  0.00    -0.354 N 
ATOM      5  C   UNL     1      18.023  -4.397  16.825  1.00  0.00     0.244 C 
ATOM      6  O   UNL     1      17.918  -4.206  18.070  1.00  0.00    -0.273 OA
ATOM      7  H   UNL     1      19.159  -4.409  15.092  1.00  0.00     0.163 HD
BRANCH   5   8
ATOM      8  C   UNL     1      16.742  -4.811  16.202  1.00  0.00     0.191 C 
BRANCH   8   9
ATOM      9  C   UNL     1      15.762  -3.700  16.107  1.00  0.00     0.151 C 
BRANCH   9  10
ATOM     10  N   UNL     1      16.507  -2.440  16.004  1.00  0.00    -0.349 N 
ATOM     11  O   UNL     1      15.414  -1.651  14.114  1.00  0.00    -0.269 OA
ATOM     12  C   UNL     1      16.259  -1.518  15.005  1.00  0.00     0.251 C 
ATOM     13  H   UNL     1      17.257  -2.271  16.752  1.00  0.00     0.163 HD
BRANCH  12  14
ATOM     14  C   UNL     1      17.063  -0.275  14.973  1.00  0.00     0.040 A 
ATOM     15  C   UNL     1      16.886   0.677  14.004  1.00  0.00     0.014 A 
ATOM     16  C   UNL     1      17.991  -0.110  15.975  1.00  0.00     0.021 A 
ATOM     17  C   UNL     1      17.661   1.831  14.032  1.00  0.00     0.001 A 
ATOM     18  C   UNL     1      18.770   1.042  16.010  1.00  0.00    -0.010 A 
ATOM     19  C   UNL     1      18.597   1.996  15.041  1.00  0.00     0.007 A 
BRANCH  18  20
ATOM     20  C   UNL     1      19.733   1.168  17.118  1.00  0.00     0.265 C 
BRANCH  20  21
ATOM     21  O   UNL     1      19.192   1.666  18.274  1.00  0.00    -0.488 OA
BRANCH  21  22
ATOM     22  C   UNL     1      19.832   2.172  19.354  1.00  0.00     0.132 A 
ATOM     23  C   UNL     1      19.052   2.574  20.435  1.00  0.00     0.081 A 
ATOM     24  C   UNL     1      21.179   2.328  19.493  1.00  0.00     0.047 A 
ATOM     25  C   UNL     1      19.610   3.091  21.567  1.00  0.00     0.018 A 
ATOM     26  C   UNL     1      21.756   2.848  20.625  1.00  0.00     0.004 A 
ATOM     27  C   UNL     1      20.966   3.244  21.700  1.00  0.00     0.001 A 
BRANCH  23  28
ATOM     28  C   UNL     1      17.584   2.451  20.322  1.00  0.00     0.252 C 
ATOM     29  N   UNL     1      16.932   2.766  19.101  1.00  0.00    -0.365 N 
ATOM     30  O   UNL     1      16.960   2.078  21.324  1.00  0.00    -0.269 OA
ATOM     31  H   UNL     1      16.787   3.800  18.908  1.00  0.00     0.159 HD
ATOM     32  H   UNL     1      16.609   2.059  18.431  1.00  0.00     0.159 HD
ENDBRANCH  23  28
ENDBRANCH  21  22
ENDBRANCH  20  21
ENDBRANCH  18  20
ENDBRANCH  12  14
ENDBRANCH   9  10
ENDBRANCH   8   9
BRANCH   8  33
ATOM     33  N   UNL     1      17.083  -5.407  14.928  1.00  0.00    -0.337 N 
ATOM     34  C   UNL     1      16.242  -6.311  14.275  1.00  0.00     0.270 C 
ATOM     35  H   UNL     1      18.000  -5.127  14.501  1.00  0.00     0.164 HD
ATOM     36  O   UNL     1      15.131  -6.695  14.718  1.00  0.00    -0.268 OA
BRANCH  34  37
ATOM     37  C   UNL     1      16.684  -6.852  12.966  1.00  0.00     0.123 A 
ATOM     38  C   UNL     1      15.939  -6.927  11.816  1.00  0.00     0.058 A 
ATOM     39  N   UNL     1      17.896  -7.353  12.683  1.00  0.00    -0.273 N 
ATOM     40  C   UNL     1      16.745  -7.493  10.826  1.00  0.00     0.060 A 
ATOM     41  N   UNL     1      17.923  -7.728  11.431  1.00  0.00    -0.180 NA
ATOM     42  H   UNL     1      18.696  -7.439  13.345  1.00  0.00     0.190 HD
ATOM     43  C   UNL     1      16.399  -7.775   9.406  1.00  0.00     0.069 C 
ENDBRANCH  34  37
ENDBRANCH   8  33
ENDBRANCH   5   8
ENDBRANCH   3   4
ENDBRANCH   2   3
ENDBRANCH   1   2
BRANCH   1  44
ATOM     44  C   UNL     1      22.905  -0.929  16.720  1.00  0.00     0.000 C 
BRANCH  44  45
ATOM     45  C   UNL     1      23.499   0.114  17.538  1.00  0.00     0.000 C 
BRANCH  45  46
ATOM     46  C   UNL     1      23.848   1.447  17.113  1.00  0.00     0.000 C 
BRANCH  46  47
ATOM     47  C   UNL     1      25.185   1.973  17.520  1.00  0.00     0.000 C 
BRANCH  47  48
ATOM     48  C   UNL     1      24.909   3.413  17.978  1.00  0.00     0.000 C 
BRANCH  48  49
ATOM     49  C   UNL     1      25.640   4.402  17.182  1.00  0.00     0.000 C 
BRANCH  49  50
ATOM     50  C   UNL     1      25.842   5.752  18.010  1.00  0.00     0.001 C 
BRANCH  50  51
ATOM     51  C   UNL     1      25.607   6.873  17.228  1.00  0.00     0.009 C 
BRANCH  51  52
ATOM     52  C   UNL     1      26.037   8.213  16.758  1.00  0.00    -0.012 C 
BRANCH  52  53
ATOM     53  C   UNL     1      27.133   8.690  17.734  1.00  0.00    -0.018 C 
ATOM     54  C   UNL     1      28.295   7.853  17.976  1.00  0.00     0.033 C 
ATOM     55  C   UNL     1      27.571  10.080  17.597  1.00  0.00     0.033 C 
ATOM     56  C   UNL     1      26.438   8.870  19.114  1.00  0.00     0.033 C 
ATOM     57  C   UNL     1      29.134   8.224  19.189  1.00  0.00     0.101 C 
ATOM     58  C   UNL     1      28.632  10.523  18.556  1.00  0.00     0.101 C 
ATOM     59  C   UNL     1      27.408   9.428  20.173  1.00  0.00     0.101 C 
ATOM     60  C   UNL     1      29.727   9.615  18.886  1.00  0.00     0.051 C 
ATOM     61  C   UNL     1      28.408   8.349  20.442  1.00  0.00     0.051 C 
ATOM     62  C   UNL     1      27.928  10.771  19.905  1.00  0.00     0.051 C 
BRANCH  57  63
ATOM     63  S   UNL     1      30.524   7.107  19.212  1.00  0.00     0.270 S 
ATOM     64  O   UNL     1      31.784   7.855  18.904  1.00  0.00    -0.199 OA
ATOM     65  O   UNL     1      30.360   6.062  18.129  1.00  0.00    -0.199 OA
BRANCH  63  66
ATOM     66  O   UNL     1      30.625   6.318  20.707  1.00  0.00    -0.285 OA
ATOM     67  H   UNL     1      30.877   5.369  20.502  1.00  0.00     0.234 HD
ENDBRANCH  63  66
ENDBRANCH  57  63
BRANCH  58  68
ATOM     68  S   UNL     1      29.287  12.108  18.089  1.00  0.00     0.270 S 
ATOM     69  O   UNL     1      28.178  13.142  18.139  1.00  0.00    -0.199 OA
ATOM     70  O   UNL     1      29.775  12.099  16.662  1.00  0.00    -0.199 OA
BRANCH  68  71
ATOM     71  O   UNL     1      30.564  12.555  19.073  1.00  0.00    -0.285 OA
ATOM     72  H   UNL     1      30.422  12.121  19.953  1.00  0.00     0.234 HD
ENDBRANCH  68  71
ENDBRANCH  58  68
BRANCH  59  73
ATOM     73  S   UNL     1      26.426   9.557  21.678  1.00  0.00     0.270 S 
ATOM     74  O   UNL     1      25.659   8.280  21.893  1.00  0.00    -0.199 OA
ATOM     75  O   UNL     1      27.293   9.762  22.881  1.00  0.00    -0.199 OA
BRANCH  73  76
ATOM     76  O   UNL     1      25.350  10.811  21.602  1.00  0.00    -0.285 OA
ATOM     77  H   UNL     1      24.436  10.516  21.483  1.00  0.00     0.234 HD
ENDBRANCH  73  76
ENDBRANCH  59  73
ENDBRANCH  52  53
BRANCH  52  78
ATOM     78  C   UNL     1      24.778   9.057  16.853  1.00  0.00    -0.018 C 
ATOM     79  C   UNL     1      24.059   8.927  18.197  1.00  0.00     0.033 C 
ATOM     80  C   UNL     1      23.602   8.465  16.088  1.00  0.00     0.033 C 
ATOM     81  C   UNL     1      24.892  10.506  16.816  1.00  0.00     0.033 C 
ATOM     82  C   UNL     1      22.752   9.733  18.252  1.00  0.00     0.101 C 
ATOM     83  C   UNL     1      22.370   9.334  16.039  1.00  0.00     0.101 C 
ATOM     84  C   UNL     1      23.545  11.261  16.672  1.00  0.00     0.101 C 
ATOM     85  C   UNL     1      21.681   9.242  17.367  1.00  0.00     0.051 C 
ATOM     86  C   UNL     1      22.884  11.193  18.034  1.00  0.00     0.051 C 
ATOM     87  C   UNL     1      22.716  10.711  15.597  1.00  0.00     0.051 C 
BRANCH  82  88
ATOM     88  S   UNL     1      22.166   9.514  19.934  1.00  0.00     0.270 S 
ATOM     89  O   UNL     1      22.528  10.727  20.768  1.00  0.00    -0.199 OA
ATOM     90  O   UNL     1      20.673   9.312  19.901  1.00  0.00    -0.199 OA
BRANCH  88  91
ATOM     91  O   UNL     1      22.902   8.162  20.564  1.00  0.00    -0.285 OA
ATOM     92  H   UNL     1      22.233   7.437  20.641  1.00  0.00     0.234 HD
ENDBRANCH  88  91
ENDBRANCH  82  88
BRANCH  83  93
ATOM     93  S   UNL     1      21.157   8.714  14.888  1.00  0.00     0.270 S 
ATOM     94  O   UNL     1      19.958   8.287  15.684  1.00  0.00    -0.199 OA
ATOM     95  O   UNL     1      21.651   7.519  14.145  1.00  0.00    -0.199 OA
BRANCH  93  96
ATOM     96  O   UNL     1      20.717   9.962  13.859  1.00  0.00    -0.285 OA
ATOM     97  H   UNL     1      20.858   9.643  12.932  1.00  0.00     0.234 HD
ENDBRANCH  93  96
ENDBRANCH  83  93
BRANCH  84  98
ATOM     98  S   UNL     1      23.864  12.985  16.354  1.00  0.00     0.270 S 
ATOM     99  O   UNL     1      22.546  13.649  16.062  1.00  0.00    -0.199 OA
ATOM    100  O   UNL     1      24.599  13.639  17.466  1.00  0.00    -0.199 OA
BRANCH  98 101
ATOM    101  O   UNL     1      24.758  13.021  14.908  1.00  0.00    -0.285 OA
ATOM    102  H   UNL     1      25.339  12.214  14.836  1.00  0.00     0.234 HD
ENDBRANCH  98 101
ENDBRANCH  84  98
ENDBRANCH  52  78
BRANCH  52 103
ATOM    103  C   UNL     1      26.624   8.061  15.364  1.00  0.00    -0.018 C 
ATOM    104  C   UNL     1      26.194   6.979  14.487  1.00  0.00     0.033 C 
ATOM    105  C   UNL     1      26.912   9.352  14.656  1.00  0.00     0.033 C 
ATOM    106  C   UNL     1      28.144   7.648  15.503  1.00  0.00     0.033 C 
ATOM    107  C   UNL     1      26.819   7.003  13.070  1.00  0.00     0.101 C 
ATOM    108  C   UNL     1      27.528   9.200  13.273  1.00  0.00     0.101 C 
ATOM    109  C   UNL     1      28.815   7.462  14.163  1.00  0.00     0.101 C 
ATOM    110  C   UNL     1      26.679   8.329  12.438  1.00  0.00     0.051 C 
ATOM    111  C   UNL     1      28.202   6.474  13.250  1.00  0.00     0.051 C 
ATOM    112  C   UNL     1      28.966   8.737  13.360  1.00  0.00     0.051 C 
BRANCH 107 113
ATOM    113  S   UNL     1      25.988   5.802  12.036  1.00  0.00     0.270 S 
ATOM    114  O   UNL     1      26.741   4.493  12.216  1.00  0.00    -0.199 OA
ATOM    115  O   UNL     1      24.621   5.608  12.589  1.00  0.00    -0.199 OA
BRANCH 113 116
ATOM    116  O   UNL     1      26.014   6.273  10.434  1.00  0.00    -0.285 OA
ATOM    117  H   UNL     1      25.569   5.572   9.883  1.00  0.00     0.234 HD
ENDBRANCH 113 116
ENDBRANCH 107 113
BRANCH 108 118
ATOM    118  S   UNL     1      27.594  10.826  12.549  1.00  0.00     0.270 S 
ATOM    119  O   UNL     1      29.000  11.200  12.237  1.00  0.00    -0.199 OA
ATOM    120  O   UNL     1      27.041  11.783  13.582  1.00  0.00    -0.199 OA
BRANCH 118 121
ATOM    121  O   UNL     1      26.600  10.914  11.213  1.00  0.00    -0.285 OA
ATOM    122  H   UNL     1      25.786  10.387  11.378  1.00  0.00     0.234 HD
ENDBRANCH 118 121
ENDBRANCH 108 118
BRANCH 109 123
ATOM    123  S   UNL     1      30.476   6.887  14.533  1.00  0.00     0.270 S 
ATOM    124  O   UNL     1      31.163   7.796  15.507  1.00  0.00    -0.199 OA
ATOM    125  O   UNL     1      31.186   6.762  13.228  1.00  0.00    -0.199 OA
BRANCH 123 126
ATOM    126  O   UNL     1      30.322   5.351  15.187  1.00  0.00    -0.285 OA
ATOM    127  H   UNL     1      31.227   4.931  15.150  1.00  0.00     0.234 HD
ENDBRANCH 123 126
ENDBRANCH 109 123
ENDBRANCH  52 103
ENDBRANCH  51  52
ENDBRANCH  50  51
ENDBRANCH  49  50
ENDBRANCH  48  49
ENDBRANCH  47  48
ENDBRANCH  46  47
ENDBRANCH  45  46
ENDBRANCH  44  45
ENDBRANCH   1  44
TORSDOF 43
ENDMDL
MODEL 10
REMARK VINA RESULT:   -10.124      2.133      4.994
REMARK INTER + INTRA:         -41.049
REMARK INTER:                 -30.858
REMARK INTRA:                 -10.191
REMARK UNBOUND:                -8.138
REMARK SMILES Cc1cc(C(=O)N[C@H](CNC(=O)c2cccc(COc3ccccc3C(N)=O)c2)C(=O)NCCCCCCCCCCCC([C@]23C[C@]4(S(=O)(=O)O)C[C@](S(=O)(=O)O)(C2)C[C@](S(=O)(=O)O)(C3)C4)([C@]23C[C@]4(S(=O)(=O)O)C[C@](S(=O)(=O)O)(C2)C[C@](S(=O)(=O)O)(C3)C4)[C@]23C[C@]4(S(=O)(=O)O)C[C@](S(=O)(=O)O)(C2)C[C@](S(=O)(=O)O)(C3)C4)[nH]n1
REMARK SMILES IDX 35 1 34 2 33 3 32 4 30 5 31 6 8 8 9 9 10 10 12 11 11 12
REMARK SMILES IDX 13 14 14 15 29 16 15 17 17 18 16 19 18 20 19 21 20 22 25 23
REMARK SMILES IDX 21 24 24 25 22 26 23 27 26 28 27 29 28 30 7 33 5 34 6 36
REMARK SMILES IDX 4 37 3 38 111 39 2 40 112 41 1 43 36 44 37 45 38 46 39 47
REMARK SMILES IDX 40 48 41 49 42 50 43 51 44 52 67 53 80 54 87 55 68 56 75 57
REMARK SMILES IDX 82 58 69 59 81 60 74 61 88 62 76 63 77 64 78 65 79 66 83 68
REMARK SMILES IDX 84 69 85 70 86 71 70 73 71 74 72 75 73 76 45 78 46 79 58 80
REMARK SMILES IDX 65 81 47 82 53 83 60 84 52 85 66 86 59 87 48 88 49 89 50 90
REMARK SMILES IDX 51 91 54 93 55 94 56 95 57 96 61 98 62 99 63 100 64 101
REMARK SMILES IDX 89 103 102 104 109 105 90 106 97 107 104 108 91 109 103 110
REMARK SMILES IDX 96 111 110 112 98 113 99 114 100 115 101 116 105 118 106 119
REMARK SMILES IDX 107 120 108 121 92 123 93 124 94 125 95 126
REMARK H PARENT 32 7 10 13 27 31 27 32 7 35 111 42 79 67 86 72 73 77 51 92
REMARK H PARENT 57 97 64 102 101 117 108 122 95 127
REMARK Flexibility Score: inf
ROOT
ATOM      1  C   UNL     1      20.094   1.147  18.496  1.00  0.00     0.002 C 
ENDROOT
BRANCH   1   2
ATOM      2  C   UNL     1      19.220   1.892  17.549  1.00  0.00     0.021 C 
BRANCH   2   3
ATOM      3  C   UNL     1      17.848   1.318  17.393  1.00  0.00     0.116 C 
BRANCH   3   4
ATOM      4  N   UNL     1      17.561   0.713  16.153  1.00  0.00    -0.354 N 
ATOM      5  C   UNL     1      17.000   1.154  14.958  1.00  0.00     0.244 C 
ATOM      6  O   UNL     1      16.631   2.354  14.814  1.00  0.00    -0.273 OA
ATOM      7  H   UNL     1      17.842  -0.347  16.112  1.00  0.00     0.163 HD
BRANCH   5   8
ATOM      8  C   UNL     1      16.762   0.335  13.745  1.00  0.00     0.191 C 
BRANCH   8   9
ATOM      9  C   UNL     1      17.881   0.406  12.772  1.00  0.00     0.151 C 
BRANCH   9  10
ATOM     10  N   UNL     1      19.116   0.029  13.468  1.00  0.00    -0.349 N 
ATOM     11  O   UNL     1      19.977   2.177  13.644  1.00  0.00    -0.269 OA
ATOM     12  C   UNL     1      20.062   0.962  13.847  1.00  0.00     0.251 C 
ATOM     13  H   UNL     1      19.245  -1.018  13.671  1.00  0.00     0.163 HD
BRANCH  12  14
ATOM     14  C   UNL     1      21.283   0.492  14.541  1.00  0.00     0.040 A 
ATOM     15  C   UNL     1      22.489   1.127  14.394  1.00  0.00     0.014 A 
ATOM     16  C   UNL     1      21.150  -0.607  15.355  1.00  0.00     0.021 A 
ATOM     17  C   UNL     1      23.599   0.648  15.080  1.00  0.00     0.001 A 
ATOM     18  C   UNL     1      22.256  -1.092  16.046  1.00  0.00    -0.010 A 
ATOM     19  C   UNL     1      23.463  -0.461  15.900  1.00  0.00     0.007 A 
BRANCH  18  20
ATOM     20  C   UNL     1      22.045  -2.261  16.917  1.00  0.00     0.265 C 
BRANCH  20  21
ATOM     21  O   UNL     1      20.992  -3.054  16.543  1.00  0.00    -0.488 OA
BRANCH  21  22
ATOM     22  C   UNL     1      19.841  -3.296  17.212  1.00  0.00     0.132 A 
ATOM     23  C   UNL     1      19.203  -4.512  16.976  1.00  0.00     0.081 A 
ATOM     24  C   UNL     1      19.236  -2.462  18.105  1.00  0.00     0.047 A 
ATOM     25  C   UNL     1      18.040  -4.844  17.609  1.00  0.00     0.018 A 
ATOM     26  C   UNL     1      18.066  -2.782  18.749  1.00  0.00     0.004 A 
ATOM     27  C   UNL     1      17.438  -4.000  18.506  1.00  0.00     0.001 A 
BRANCH  23  28
ATOM     28  C   UNL     1      19.804  -5.438  15.994  1.00  0.00     0.252 C 
ATOM     29  N   UNL     1      19.622  -5.222  14.604  1.00  0.00    -0.365 N 
ATOM     30  O   UNL     1      20.453  -6.397  16.433  1.00  0.00    -0.269 OA
ATOM     31  H   UNL     1      18.685  -5.527  14.207  1.00  0.00     0.159 HD
ATOM     32  H   UNL     1      20.334  -4.803  13.996  1.00  0.00     0.159 HD
ENDBRANCH  23  28
ENDBRANCH  21  22
ENDBRANCH  20  21
ENDBRANCH  18  20
ENDBRANCH  12  14
ENDBRANCH   9  10
ENDBRANCH   8   9
BRANCH   8  33
ATOM     33  N   UNL     1      16.468  -1.005  14.210  1.00  0.00    -0.337 N 
ATOM     34  C   UNL     1      16.182  -2.055  13.335  1.00  0.00     0.270 C 
ATOM     35  H   UNL     1      16.485  -1.163  15.246  1.00  0.00     0.164 HD
ATOM     36  O   UNL     1      16.144  -1.947  12.083  1.00  0.00    -0.268 OA
BRANCH  34  37
ATOM     37  C   UNL     1      15.908  -3.392  13.918  1.00  0.00     0.123 A 
ATOM     38  C   UNL     1      16.273  -4.605  13.392  1.00  0.00     0.058 A 
ATOM     39  N   UNL     1      15.262  -3.638  15.068  1.00  0.00    -0.273 N 
ATOM     40  C   UNL     1      15.823  -5.597  14.267  1.00  0.00     0.060 A 
ATOM     41  N   UNL     1      15.215  -4.930  15.264  1.00  0.00    -0.180 NA
ATOM     42  H   UNL     1      14.856  -2.926  15.710  1.00  0.00     0.190 HD
ATOM     43  C   UNL     1      15.981  -7.072  14.145  1.00  0.00     0.069 C 
ENDBRANCH  34  37
ENDBRANCH   8  33
ENDBRANCH   5   8
ENDBRANCH   3   4
ENDBRANCH   2   3
ENDBRANCH   1   2
BRANCH   1  44
ATOM     44  C   UNL     1      21.225   1.897  19.071  1.00  0.00     0.000 C 
BRANCH  44  45
ATOM     45  C   UNL     1      22.446   2.145  18.324  1.00  0.00     0.000 C 
BRANCH  45  46
ATOM     46  C   UNL     1      23.793   1.874  18.763  1.00  0.00     0.000 C 
BRANCH  46  47
ATOM     47  C   UNL     1      24.760   3.013  18.768  1.00  0.00     0.000 C 
BRANCH  47  48
ATOM     48  C   UNL     1      25.180   3.167  17.299  1.00  0.00     0.000 C 
BRANCH  48  49
ATOM     49  C   UNL     1      25.926   4.406  17.059  1.00  0.00     0.000 C 
BRANCH  49  50
ATOM     50  C   UNL     1      25.437   5.557  18.050  1.00  0.00     0.001 C 
BRANCH  50  51
ATOM     51  C   UNL     1      26.338   6.612  18.095  1.00  0.00     0.009 C 
BRANCH  51  52
ATOM     52  C   UNL     1      26.894   7.841  17.476  1.00  0.00    -0.012 C 
BRANCH  52  53
ATOM     53  C   UNL     1      26.350   9.030  18.295  1.00  0.00    -0.018 C 
ATOM     54  C   UNL     1      27.150  10.234  18.433  1.00  0.00     0.033 C 
ATOM     55  C   UNL     1      24.958   9.412  18.048  1.00  0.00     0.033 C 
ATOM     56  C   UNL     1      26.122   8.498  19.738  1.00  0.00     0.033 C 
ATOM     57  C   UNL     1      26.705  11.200  19.522  1.00  0.00     0.101 C 
ATOM     58  C   UNL     1      24.450  10.565  18.854  1.00  0.00     0.101 C 
ATOM     59  C   UNL     1      25.495   9.570  20.650  1.00  0.00     0.101 C 
ATOM     60  C   UNL     1      25.318  11.715  19.091  1.00  0.00     0.051 C 
ATOM     61  C   UNL     1      26.539  10.623  20.845  1.00  0.00     0.051 C 
ATOM     62  C   UNL     1      24.155  10.018  20.265  1.00  0.00     0.051 C 
BRANCH  57  63
ATOM     63  S   UNL     1      27.790  12.612  19.427  1.00  0.00     0.270 S 
ATOM     64  O   UNL     1      28.522  12.780  20.723  1.00  0.00    -0.199 OA
ATOM     65  O   UNL     1      26.977  13.871  19.217  1.00  0.00    -0.199 OA
BRANCH  63  66
ATOM     66  O   UNL     1      28.867  12.446  18.130  1.00  0.00    -0.285 OA
ATOM     67  H   UNL     1      29.256  11.524  18.211  1.00  0.00     0.234 HD
ENDBRANCH  63  66
ENDBRANCH  57  63
BRANCH  58  68
ATOM     68  S   UNL     1      22.873  11.118  18.246  1.00  0.00     0.270 S 
ATOM     69  O   UNL     1      22.471  12.384  18.977  1.00  0.00    -0.199 OA
ATOM     70  O   UNL     1      21.789  10.111  18.542  1.00  0.00    -0.199 OA
BRANCH  68  71
ATOM     71  O   UNL     1      22.911  11.370  16.593  1.00  0.00    -0.285 OA
ATOM     72  H   UNL     1      21.993  11.219  16.252  1.00  0.00     0.234 HD
ENDBRANCH  68  71
ENDBRANCH  58  68
BRANCH  59  73
ATOM     73  S   UNL     1      25.319   8.767  22.254  1.00  0.00     0.270 S 
ATOM     74  O   UNL     1      24.080   9.274  22.940  1.00  0.00    -0.199 OA
ATOM     75  O   UNL     1      25.171   7.284  22.110  1.00  0.00    -0.199 OA
BRANCH  73  76
ATOM     76  O   UNL     1      26.621   9.059  23.231  1.00  0.00    -0.285 OA
ATOM     77  H   UNL     1      27.397   9.368  22.742  1.00  0.00     0.234 HD
ENDBRANCH  73  76
ENDBRANCH  59  73
ENDBRANCH  52  53
BRANCH  52  78
ATOM     78  C   UNL     1      26.345   7.820  16.060  1.00  0.00    -0.018 C 
ATOM     79  C   UNL     1      26.845   8.978  15.197  1.00  0.00     0.033 C 
ATOM     80  C   UNL     1      24.899   8.289  15.974  1.00  0.00     0.033 C 
ATOM     81  C   UNL     1      26.709   6.726  15.175  1.00  0.00     0.033 C 
ATOM     82  C   UNL     1      26.227   8.981  13.790  1.00  0.00     0.101 C 
ATOM     83  C   UNL     1      24.265   8.157  14.611  1.00  0.00     0.101 C 
ATOM     84  C   UNL     1      25.907   6.667  13.849  1.00  0.00     0.101 C 
ATOM     85  C   UNL     1      24.782   9.267  13.747  1.00  0.00     0.051 C 
ATOM     86  C   UNL     1      26.472   7.768  12.975  1.00  0.00     0.051 C 
ATOM     87  C   UNL     1      24.464   6.786  14.071  1.00  0.00     0.051 C 
BRANCH  82  88
ATOM     88  S   UNL     1      27.042  10.342  12.949  1.00  0.00     0.270 S 
ATOM     89  O   UNL     1      26.626  10.369  11.492  1.00  0.00    -0.199 OA
ATOM     90  O   UNL     1      26.667  11.628  13.639  1.00  0.00    -0.199 OA
BRANCH  88  91
ATOM     91  O   UNL     1      28.684  10.104  13.058  1.00  0.00    -0.285 OA
ATOM     92  H   UNL     1      29.044   9.918  12.154  1.00  0.00     0.234 HD
ENDBRANCH  88  91
ENDBRANCH  82  88
BRANCH  83  93
ATOM     93  S   UNL     1      22.505   8.441  14.659  1.00  0.00     0.270 S 
ATOM     94  O   UNL     1      21.851   7.359  13.850  1.00  0.00    -0.199 OA
ATOM     95  O   UNL     1      22.133   9.748  14.045  1.00  0.00    -0.199 OA
BRANCH  93  96
ATOM     96  O   UNL     1      21.993   8.322  16.251  1.00  0.00    -0.285 OA
ATOM     97  H   UNL     1      22.801   8.343  16.823  1.00  0.00     0.234 HD
ENDBRANCH  93  96
ENDBRANCH  83  93
BRANCH  84  98
ATOM     98  S   UNL     1      26.257   5.133  13.013  1.00  0.00     0.270 S 
ATOM     99  O   UNL     1      25.368   4.075  13.606  1.00  0.00    -0.199 OA
ATOM    100  O   UNL     1      26.108   5.245  11.541  1.00  0.00    -0.199 OA
BRANCH  98 101
ATOM    101  O   UNL     1      27.851   4.732  13.451  1.00  0.00    -0.285 OA
ATOM    102  H   UNL     1      28.028   3.767  13.277  1.00  0.00     0.234 HD
ENDBRANCH  98 101
ENDBRANCH  84  98
ENDBRANCH  52  78
BRANCH  52 103
ATOM    103  C   UNL     1      28.408   7.788  17.596  1.00  0.00    -0.018 C 
ATOM    104  C   UNL     1      29.254   8.627  16.755  1.00  0.00     0.033 C 
ATOM    105  C   UNL     1      28.925   7.592  18.991  1.00  0.00     0.033 C 
ATOM    106  C   UNL     1      28.903   6.378  17.077  1.00  0.00     0.033 C 
ATOM    107  C   UNL     1      30.771   8.523  17.050  1.00  0.00     0.101 C 
ATOM    108  C   UNL     1      30.440   7.508  19.107  1.00  0.00     0.101 C 
ATOM    109  C   UNL     1      30.404   6.232  17.148  1.00  0.00     0.101 C 
ATOM    110  C   UNL     1      31.058   8.696  18.486  1.00  0.00     0.051 C 
ATOM    111  C   UNL     1      31.200   7.242  16.416  1.00  0.00     0.051 C 
ATOM    112  C   UNL     1      30.961   6.199  18.555  1.00  0.00     0.051 C 
BRANCH 107 113
ATOM    113  S   UNL     1      31.638   9.805  16.149  1.00  0.00     0.270 S 
ATOM    114  O   UNL     1      31.185  11.126  16.750  1.00  0.00    -0.199 OA
ATOM    115  O   UNL     1      33.087   9.654  16.446  1.00  0.00    -0.199 OA
BRANCH 113 116
ATOM    116  O   UNL     1      31.266   9.745  14.523  1.00  0.00    -0.285 OA
ATOM    117  H   UNL     1      30.585   9.033  14.372  1.00  0.00     0.234 HD
ENDBRANCH 113 116
ENDBRANCH 107 113
BRANCH 108 118
ATOM    118  S   UNL     1      30.831   7.482  20.844  1.00  0.00     0.270 S 
ATOM    119  O   UNL     1      30.801   6.088  21.364  1.00  0.00    -0.199 OA
ATOM    120  O   UNL     1      29.762   8.297  21.540  1.00  0.00    -0.199 OA
BRANCH 118 121
ATOM    121  O   UNL     1      32.289   8.238  21.129  1.00  0.00    -0.285 OA
ATOM    122  H   UNL     1      33.004   7.562  21.168  1.00  0.00     0.234 HD
ENDBRANCH 118 121
ENDBRANCH 108 118
BRANCH 109 123
ATOM    123  S   UNL     1      30.768   4.634  16.412  1.00  0.00     0.270 S 
ATOM    124  O   UNL     1      31.206   3.645  17.450  1.00  0.00    -0.199 OA
ATOM    125  O   UNL     1      31.783   4.875  15.347  1.00  0.00    -0.199 OA
BRANCH 123 126
ATOM    126  O   UNL     1      29.357   4.109  15.674  1.00  0.00    -0.285 OA
ATOM    127  H   UNL     1      29.422   3.115  15.606  1.00  0.00     0.234 HD
ENDBRANCH 123 126
ENDBRANCH 109 123
ENDBRANCH  52 103
ENDBRANCH  51  52
ENDBRANCH  50  51
ENDBRANCH  49  50
ENDBRANCH  48  49
ENDBRANCH  47  48
ENDBRANCH  46  47
ENDBRANCH  45  46
ENDBRANCH  44  45
ENDBRANCH   1  44
TORSDOF 43
ENDMDL
