MODEL 1
REMARK VINA RESULT:    -9.986      0.000      0.000
REMARK INTER + INTRA:         -41.602
REMARK INTER:                 -32.462
REMARK INTRA:                  -9.141
REMARK UNBOUND:                -9.141
REMARK SMILES NC(=O)c1ccccc1OCc1cccc(C(=O)NC[C@@H](NC(=O)c2ncc[nH]2)C(=O)NCCCCCCCCCCCC([C@]23C[C@]4(S(=O)(=O)O)C[C@](S(=O)(=O)O)(C2)C[C@](S(=O)(=O)O)(C3)C4)([C@]23C[C@]4(S(=O)(=O)O)C[C@](S(=O)(=O)O)(C2)C[C@](S(=O)(=O)O)(C3)C4)[C@]23C[C@]4(S(=O)(=O)O)C[C@](S(=O)(=O)O)(C2)C[C@](S(=O)(=O)O)(C3)C4)c1
REMARK SMILES IDX 35 1 34 2 33 3 32 4 30 5 31 6 21 8 20 9 19 10 18 11 17 12
REMARK SMILES IDX 16 14 15 15 111 16 14 17 12 18 13 19 11 20 10 21 9 22 4 23
REMARK SMILES IDX 8 24 5 25 7 26 6 27 2 28 1 29 3 30 22 33 23 34 24 36 25 37
REMARK SMILES IDX 26 38 29 39 27 40 28 41 36 43 37 44 38 45 39 46 40 47 41 48
REMARK SMILES IDX 42 49 43 50 44 51 67 52 80 53 87 54 68 55 75 56 82 57 69 58
REMARK SMILES IDX 81 59 74 60 88 61 76 62 77 63 78 64 79 65 83 67 84 68 85 69
REMARK SMILES IDX 86 70 70 72 71 73 72 74 73 75 45 77 46 78 58 79 65 80 47 81
REMARK SMILES IDX 53 82 60 83 52 84 66 85 59 86 48 87 49 88 50 89 51 90 54 92
REMARK SMILES IDX 55 93 56 94 57 95 61 97 62 98 63 99 64 100 89 102 102 103
REMARK SMILES IDX 109 104 90 105 97 106 104 107 91 108 103 109 96 110 110 111
REMARK SMILES IDX 98 112 99 113 100 114 101 115 105 117 106 118 107 119
REMARK SMILES IDX 108 120 92 122 93 123 94 124 95 125
REMARK H PARENT 32 7 19 13 1 31 1 32 22 35 29 42 79 66 86 71 73 76 51 91 57 96
REMARK H PARENT 64 101 101 116 108 121 95 126
REMARK Flexibility Score: inf
ROOT
ATOM      1  C   UNL     1      20.311   1.030  14.405  1.00  0.00     0.002 C 
ENDROOT
BRANCH   1   2
ATOM      2  C   UNL     1      18.968   1.621  14.174  1.00  0.00     0.021 C 
BRANCH   2   3
ATOM      3  C   UNL     1      18.007   0.487  13.802  1.00  0.00     0.116 C 
BRANCH   3   4
ATOM      4  N   UNL     1      18.645  -0.773  14.052  1.00  0.00    -0.354 N 
ATOM      5  C   UNL     1      18.306  -1.479  15.238  1.00  0.00     0.244 C 
ATOM      6  O   UNL     1      17.473  -0.947  16.021  1.00  0.00    -0.273 OA
ATOM      7  H   UNL     1      19.334  -1.164  13.397  1.00  0.00     0.163 HD
BRANCH   5   8
ATOM      8  C   UNL     1      18.853  -2.809  15.613  1.00  0.00     0.191 C 
BRANCH   8   9
ATOM      9  C   UNL     1      19.410  -2.922  16.969  1.00  0.00     0.151 C 
BRANCH   9  10
ATOM     10  N   UNL     1      20.394  -1.971  17.398  1.00  0.00    -0.349 N 
ATOM     11  O   UNL     1      21.837  -2.408  15.642  1.00  0.00    -0.269 OA
ATOM     12  C   UNL     1      21.597  -1.752  16.705  1.00  0.00     0.251 C 
ATOM     13  H   UNL     1      20.188  -1.425  18.273  1.00  0.00     0.163 HD
BRANCH  12  14
ATOM     14  C   UNL     1      22.585  -0.789  17.163  1.00  0.00     0.040 A 
ATOM     15  C   UNL     1      23.930  -0.941  16.989  1.00  0.00     0.014 A 
ATOM     16  C   UNL     1      22.162   0.363  17.855  1.00  0.00     0.021 A 
ATOM     17  C   UNL     1      24.831   0.001  17.475  1.00  0.00     0.001 A 
ATOM     18  C   UNL     1      23.066   1.280  18.328  1.00  0.00    -0.010 A 
ATOM     19  C   UNL     1      24.426   1.129  18.153  1.00  0.00     0.007 A 
BRANCH  18  20
ATOM     20  C   UNL     1      22.579   2.496  19.053  1.00  0.00     0.265 C 
BRANCH  20  21
ATOM     21  O   UNL     1      21.500   2.270  19.882  1.00  0.00    -0.488 OA
BRANCH  21  22
ATOM     22  C   UNL     1      20.162   2.287  19.608  1.00  0.00     0.132 A 
ATOM     23  C   UNL     1      19.325   2.709  20.636  1.00  0.00     0.081 A 
ATOM     24  C   UNL     1      19.601   1.917  18.395  1.00  0.00     0.047 A 
ATOM     25  C   UNL     1      17.979   2.757  20.460  1.00  0.00     0.018 A 
ATOM     26  C   UNL     1      18.247   1.974  18.240  1.00  0.00     0.004 A 
ATOM     27  C   UNL     1      17.393   2.386  19.239  1.00  0.00     0.001 A 
BRANCH  23  28
ATOM     28  C   UNL     1      19.911   3.115  21.934  1.00  0.00     0.252 C 
ATOM     29  N   UNL     1      20.744   2.231  22.643  1.00  0.00    -0.365 N 
ATOM     30  O   UNL     1      19.654   4.244  22.377  1.00  0.00    -0.269 OA
ATOM     31  H   UNL     1      21.762   2.173  22.376  1.00  0.00     0.159 HD
ATOM     32  H   UNL     1      20.376   1.635  23.421  1.00  0.00     0.159 HD
ENDBRANCH  23  28
ENDBRANCH  21  22
ENDBRANCH  20  21
ENDBRANCH  18  20
ENDBRANCH  12  14
ENDBRANCH   9  10
ENDBRANCH   8   9
BRANCH   8  33
ATOM     33  N   UNL     1      18.017  -3.841  15.093  1.00  0.00    -0.336 N 
ATOM     34  C   UNL     1      18.510  -5.128  14.772  1.00  0.00     0.287 C 
ATOM     35  H   UNL     1      16.988  -3.650  14.892  1.00  0.00     0.164 HD
ATOM     36  O   UNL     1      19.725  -5.366  14.973  1.00  0.00    -0.266 OA
BRANCH  34  37
ATOM     37  C   UNL     1      17.664  -6.165  14.226  1.00  0.00     0.196 A 
ATOM     38  N   UNL     1      18.016  -7.115  13.327  1.00  0.00    -0.232 NA
ATOM     39  N   UNL     1      16.362  -6.395  14.476  1.00  0.00    -0.341 N 
ATOM     40  C   UNL     1      16.970  -7.905  13.031  1.00  0.00     0.131 A 
ATOM     41  C   UNL     1      15.912  -7.441  13.770  1.00  0.00     0.104 A 
ATOM     42  H   UNL     1      15.786  -5.829  15.135  1.00  0.00     0.168 HD
ENDBRANCH  34  37
ENDBRANCH   8  33
ENDBRANCH   5   8
ENDBRANCH   3   4
ENDBRANCH   2   3
ENDBRANCH   1   2
BRANCH   1  43
ATOM     43  C   UNL     1      21.419   2.068  14.479  1.00  0.00     0.000 C 
BRANCH  43  44
ATOM     44  C   UNL     1      22.680   1.354  14.144  1.00  0.00     0.000 C 
BRANCH  44  45
ATOM     45  C   UNL     1      23.982   1.923  14.553  1.00  0.00     0.000 C 
BRANCH  45  46
ATOM     46  C   UNL     1      24.143   3.228  15.160  1.00  0.00     0.000 C 
BRANCH  46  47
ATOM     47  C   UNL     1      25.382   3.809  15.648  1.00  0.00     0.000 C 
BRANCH  47  48
ATOM     48  C   UNL     1      25.492   4.525  16.906  1.00  0.00     0.000 C 
BRANCH  48  49
ATOM     49  C   UNL     1      26.474   5.698  17.019  1.00  0.00     0.001 C 
BRANCH  49  50
ATOM     50  C   UNL     1      25.811   6.918  17.137  1.00  0.00     0.009 C 
BRANCH  50  51
ATOM     51  C   UNL     1      26.009   8.365  16.673  1.00  0.00    -0.012 C 
BRANCH  51  52
ATOM     52  C   UNL     1      26.673   8.238  15.324  1.00  0.00    -0.018 C 
ATOM     53  C   UNL     1      26.495   9.434  14.411  1.00  0.00     0.033 C 
ATOM     54  C   UNL     1      28.181   8.201  15.275  1.00  0.00     0.033 C 
ATOM     55  C   UNL     1      26.106   7.199  14.426  1.00  0.00     0.033 C 
ATOM     56  C   UNL     1      27.199   9.341  13.079  1.00  0.00     0.101 C 
ATOM     57  C   UNL     1      28.773   7.815  13.925  1.00  0.00     0.101 C 
ATOM     58  C   UNL     1      26.738   7.137  13.025  1.00  0.00     0.101 C 
ATOM     59  C   UNL     1      28.622   9.045  13.001  1.00  0.00     0.051 C 
ATOM     60  C   UNL     1      26.488   8.329  12.206  1.00  0.00     0.051 C 
ATOM     61  C   UNL     1      28.163   6.722  13.190  1.00  0.00     0.051 C 
BRANCH  56  62
ATOM     62  S   UNL     1      26.902  10.918  12.264  1.00  0.00     0.270 S 
ATOM     63  O   UNL     1      26.078  10.609  11.038  1.00  0.00    -0.199 OA
ATOM     64  O   UNL     1      26.175  11.847  13.186  1.00  0.00    -0.199 OA
BRANCH  62  65
ATOM     65  O   UNL     1      28.378  11.523  11.758  1.00  0.00    -0.285 OA
ATOM     66  H   UNL     1      28.397  11.502  10.775  1.00  0.00     0.234 HD
ENDBRANCH  62  65
ENDBRANCH  56  62
BRANCH  57  67
ATOM     67  S   UNL     1      30.532   7.561  14.148  1.00  0.00     0.270 S 
ATOM     68  O   UNL     1      30.910   7.844  15.553  1.00  0.00    -0.199 OA
ATOM     69  O   UNL     1      31.225   8.576  13.259  1.00  0.00    -0.199 OA
BRANCH  67  70
ATOM     70  O   UNL     1      30.951   6.042  13.625  1.00  0.00    -0.285 OA
ATOM     71  H   UNL     1      31.759   6.121  13.045  1.00  0.00     0.234 HD
ENDBRANCH  67  70
ENDBRANCH  57  67
BRANCH  58  72
ATOM     72  S   UNL     1      25.924   5.797  12.141  1.00  0.00     0.270 S 
ATOM     73  O   UNL     1      26.596   4.503  12.405  1.00  0.00    -0.199 OA
ATOM     74  O   UNL     1      24.463   5.713  12.492  1.00  0.00    -0.199 OA
BRANCH  72  75
ATOM     75  O   UNL     1      26.009   6.212  10.505  1.00  0.00    -0.285 OA
ATOM     76  H   UNL     1      25.271   5.774  10.011  1.00  0.00     0.234 HD
ENDBRANCH  72  75
ENDBRANCH  58  72
ENDBRANCH  51  52
BRANCH  51  77
ATOM     77  C   UNL     1      26.908   8.940  17.765  1.00  0.00    -0.018 C 
ATOM     78  C   UNL     1      26.322   8.834  19.141  1.00  0.00     0.033 C 
ATOM     79  C   UNL     1      27.627  10.186  17.479  1.00  0.00     0.033 C 
ATOM     80  C   UNL     1      28.092   8.030  18.114  1.00  0.00     0.033 C 
ATOM     81  C   UNL     1      27.171   9.540  20.216  1.00  0.00     0.101 C 
ATOM     82  C   UNL     1      28.336  10.840  18.688  1.00  0.00     0.101 C 
ATOM     83  C   UNL     1      29.004   8.607  19.158  1.00  0.00     0.101 C 
ATOM     84  C   UNL     1      27.468  10.950  19.861  1.00  0.00     0.051 C 
ATOM     85  C   UNL     1      28.337   8.674  20.525  1.00  0.00     0.051 C 
ATOM     86  C   UNL     1      29.538   9.966  18.981  1.00  0.00     0.051 C 
BRANCH  81  87
ATOM     87  S   UNL     1      26.230   9.602  21.743  1.00  0.00     0.270 S 
ATOM     88  O   UNL     1      25.435   8.313  21.812  1.00  0.00    -0.199 OA
ATOM     89  O   UNL     1      27.134   9.751  22.902  1.00  0.00    -0.199 OA
BRANCH  87  90
ATOM     90  O   UNL     1      25.135  10.865  21.590  1.00  0.00    -0.285 OA
ATOM     91  H   UNL     1      25.347  11.466  20.832  1.00  0.00     0.234 HD
ENDBRANCH  87  90
ENDBRANCH  81  87
BRANCH  82  92
ATOM     92  S   UNL     1      28.952  12.411  18.115  1.00  0.00     0.270 S 
ATOM     93  O   UNL     1      29.527  12.272  16.733  1.00  0.00    -0.199 OA
ATOM     94  O   UNL     1      27.870  13.442  18.060  1.00  0.00    -0.199 OA
BRANCH  92  95
ATOM     95  O   UNL     1      30.145  13.000  19.155  1.00  0.00    -0.285 OA
ATOM     96  H   UNL     1      30.831  12.330  19.332  1.00  0.00     0.234 HD
ENDBRANCH  92  95
ENDBRANCH  82  92
BRANCH  83  97
ATOM     97  S   UNL     1      30.408   7.505  19.319  1.00  0.00     0.270 S 
ATOM     98  O   UNL     1      31.683   8.264  19.140  1.00  0.00    -0.199 OA
ATOM     99  O   UNL     1      30.310   6.751  20.588  1.00  0.00    -0.199 OA
BRANCH  97 100
ATOM    100  O   UNL     1      30.277   6.418  18.025  1.00  0.00    -0.285 OA
ATOM    101  H   UNL     1      29.317   6.167  17.883  1.00  0.00     0.234 HD
ENDBRANCH  97 100
ENDBRANCH  83  97
ENDBRANCH  51  77
BRANCH  51 102
ATOM    102  C   UNL     1      24.717   9.138  16.762  1.00  0.00    -0.018 C 
ATOM    103  C   UNL     1      24.666  10.545  16.358  1.00  0.00     0.033 C 
ATOM    104  C   UNL     1      23.642   8.711  15.709  1.00  0.00     0.033 C 
ATOM    105  C   UNL     1      23.860   8.642  17.892  1.00  0.00     0.033 C 
ATOM    106  C   UNL     1      23.341  11.254  16.742  1.00  0.00     0.101 C 
ATOM    107  C   UNL     1      22.274   9.331  15.985  1.00  0.00     0.101 C 
ATOM    108  C   UNL     1      22.702   9.538  18.263  1.00  0.00     0.101 C 
ATOM    109  C   UNL     1      22.304  10.849  15.733  1.00  0.00     0.051 C 
ATOM    110  C   UNL     1      22.953  10.992  18.168  1.00  0.00     0.051 C 
ATOM    111  C   UNL     1      21.602   9.131  17.240  1.00  0.00     0.051 C 
BRANCH 106 112
ATOM    112  S   UNL     1      23.504  13.021  16.576  1.00  0.00     0.270 S 
ATOM    113  O   UNL     1      24.400  13.556  17.656  1.00  0.00    -0.199 OA
ATOM    114  O   UNL     1      22.182  13.710  16.550  1.00  0.00    -0.199 OA
BRANCH 112 115
ATOM    115  O   UNL     1      24.317  13.288  15.116  1.00  0.00    -0.285 OA
ATOM    116  H   UNL     1      25.109  13.868  15.256  1.00  0.00     0.234 HD
ENDBRANCH 112 115
ENDBRANCH 106 112
BRANCH 107 117
ATOM    117  S   UNL     1      21.230   8.650  14.679  1.00  0.00     0.270 S 
ATOM    118  O   UNL     1      21.053   9.783  13.695  1.00  0.00    -0.199 OA
ATOM    119  O   UNL     1      21.905   7.501  14.039  1.00  0.00    -0.199 OA
BRANCH 117 120
ATOM    120  O   UNL     1      19.706   8.307  15.281  1.00  0.00    -0.285 OA
ATOM    121  H   UNL     1      19.111   8.173  14.482  1.00  0.00     0.234 HD
ENDBRANCH 117 120
ENDBRANCH 107 117
BRANCH 108 122
ATOM    122  S   UNL     1      22.065   9.072  19.826  1.00  0.00     0.270 S 
ATOM    123  O   UNL     1      22.569  10.008  20.877  1.00  0.00    -0.199 OA
ATOM    124  O   UNL     1      22.590   7.695  20.193  1.00  0.00    -0.199 OA
BRANCH 122 125
ATOM    125  O   UNL     1      20.383   9.066  19.803  1.00  0.00    -0.285 OA
ATOM    126  H   UNL     1      20.073   9.075  20.744  1.00  0.00     0.234 HD
ENDBRANCH 122 125
ENDBRANCH 108 122
ENDBRANCH  51 102
ENDBRANCH  50  51
ENDBRANCH  49  50
ENDBRANCH  48  49
ENDBRANCH  47  48
ENDBRANCH  46  47
ENDBRANCH  45  46
ENDBRANCH  44  45
ENDBRANCH  43  44
ENDBRANCH   1  43
TORSDOF 43
ENDMDL
MODEL 2
REMARK VINA RESULT:    -9.831      0.467      2.197
REMARK INTER + INTRA:         -41.097
REMARK INTER:                 -32.106
REMARK INTRA:                  -8.991
REMARK UNBOUND:                -9.141
REMARK SMILES NC(=O)c1ccccc1OCc1cccc(C(=O)NC[C@@H](NC(=O)c2ncc[nH]2)C(=O)NCCCCCCCCCCCC([C@]23C[C@]4(S(=O)(=O)O)C[C@](S(=O)(=O)O)(C2)C[C@](S(=O)(=O)O)(C3)C4)([C@]23C[C@]4(S(=O)(=O)O)C[C@](S(=O)(=O)O)(C2)C[C@](S(=O)(=O)O)(C3)C4)[C@]23C[C@]4(S(=O)(=O)O)C[C@](S(=O)(=O)O)(C2)C[C@](S(=O)(=O)O)(C3)C4)c1
REMARK SMILES IDX 35 1 34 2 33 3 32 4 30 5 31 6 21 8 20 9 19 10 18 11 17 12
REMARK SMILES IDX 16 14 15 15 111 16 14 17 12 18 13 19 11 20 10 21 9 22 4 23
REMARK SMILES IDX 8 24 5 25 7 26 6 27 2 28 1 29 3 30 22 33 23 34 24 36 25 37
REMARK SMILES IDX 26 38 29 39 27 40 28 41 36 43 37 44 38 45 39 46 40 47 41 48
REMARK SMILES IDX 42 49 43 50 44 51 67 52 80 53 87 54 68 55 75 56 82 57 69 58
REMARK SMILES IDX 81 59 74 60 88 61 76 62 77 63 78 64 79 65 83 67 84 68 85 69
REMARK SMILES IDX 86 70 70 72 71 73 72 74 73 75 45 77 46 78 58 79 65 80 47 81
REMARK SMILES IDX 53 82 60 83 52 84 66 85 59 86 48 87 49 88 50 89 51 90 54 92
REMARK SMILES IDX 55 93 56 94 57 95 61 97 62 98 63 99 64 100 89 102 102 103
REMARK SMILES IDX 109 104 90 105 97 106 104 107 91 108 103 109 96 110 110 111
REMARK SMILES IDX 98 112 99 113 100 114 101 115 105 117 106 118 107 119
REMARK SMILES IDX 108 120 92 122 93 123 94 124 95 125
REMARK H PARENT 32 7 19 13 1 31 1 32 22 35 29 42 79 66 86 71 73 76 51 91 57 96
REMARK H PARENT 64 101 101 116 108 121 95 126
REMARK Flexibility Score: inf
ROOT
ATOM      1  C   UNL     1      20.337   1.000  14.167  1.00  0.00     0.002 C 
ENDROOT
BRANCH   1   2
ATOM      2  C   UNL     1      18.990   1.619  14.065  1.00  0.00     0.021 C 
BRANCH   2   3
ATOM      3  C   UNL     1      17.964   0.496  13.870  1.00  0.00     0.116 C 
BRANCH   3   4
ATOM      4  N   UNL     1      18.613  -0.771  14.045  1.00  0.00    -0.354 N 
ATOM      5  C   UNL     1      18.341  -1.512  15.226  1.00  0.00     0.244 C 
ATOM      6  O   UNL     1      17.555  -1.005  16.072  1.00  0.00    -0.273 OA
ATOM      7  H   UNL     1      19.262  -1.142  13.340  1.00  0.00     0.163 HD
BRANCH   5   8
ATOM      8  C   UNL     1      18.906  -2.854  15.529  1.00  0.00     0.191 C 
BRANCH   8   9
ATOM      9  C   UNL     1      19.476  -3.029  16.873  1.00  0.00     0.151 C 
BRANCH   9  10
ATOM     10  N   UNL     1      20.433  -2.075  17.352  1.00  0.00    -0.349 N 
ATOM     11  O   UNL     1      21.815  -2.269  15.506  1.00  0.00    -0.269 OA
ATOM     12  C   UNL     1      21.593  -1.730  16.636  1.00  0.00     0.251 C 
ATOM     13  H   UNL     1      20.241  -1.625  18.284  1.00  0.00     0.163 HD
BRANCH  12  14
ATOM     14  C   UNL     1      22.554  -0.767  17.146  1.00  0.00     0.040 A 
ATOM     15  C   UNL     1      23.906  -0.912  17.033  1.00  0.00     0.014 A 
ATOM     16  C   UNL     1      22.095   0.378  17.827  1.00  0.00     0.021 A 
ATOM     17  C   UNL     1      24.779   0.030  17.566  1.00  0.00     0.001 A 
ATOM     18  C   UNL     1      22.972   1.295  18.348  1.00  0.00    -0.010 A 
ATOM     19  C   UNL     1      24.339   1.151  18.233  1.00  0.00     0.007 A 
BRANCH  18  20
ATOM     20  C   UNL     1      22.447   2.503  19.059  1.00  0.00     0.265 C 
BRANCH  20  21
ATOM     21  O   UNL     1      21.459   2.234  19.984  1.00  0.00    -0.488 OA
BRANCH  21  22
ATOM     22  C   UNL     1      20.101   2.290  19.860  1.00  0.00     0.132 A 
ATOM     23  C   UNL     1      19.387   2.625  21.007  1.00  0.00     0.081 A 
ATOM     24  C   UNL     1      19.405   2.036  18.687  1.00  0.00     0.047 A 
ATOM     25  C   UNL     1      18.032   2.703  20.983  1.00  0.00     0.018 A 
ATOM     26  C   UNL     1      18.044   2.120  18.687  1.00  0.00     0.004 A 
ATOM     27  C   UNL     1      17.310   2.449  19.805  1.00  0.00     0.001 A 
BRANCH  23  28
ATOM     28  C   UNL     1      20.118   2.907  22.264  1.00  0.00     0.252 C 
ATOM     29  N   UNL     1      21.020   1.964  22.785  1.00  0.00    -0.365 N 
ATOM     30  O   UNL     1      19.919   3.987  22.839  1.00  0.00    -0.269 OA
ATOM     31  H   UNL     1      22.002   1.937  22.401  1.00  0.00     0.159 HD
ATOM     32  H   UNL     1      20.739   1.294  23.539  1.00  0.00     0.159 HD
ENDBRANCH  23  28
ENDBRANCH  21  22
ENDBRANCH  20  21
ENDBRANCH  18  20
ENDBRANCH  12  14
ENDBRANCH   9  10
ENDBRANCH   8   9
BRANCH   8  33
ATOM     33  N   UNL     1      18.078  -3.867  14.963  1.00  0.00    -0.336 N 
ATOM     34  C   UNL     1      18.517  -5.203  14.798  1.00  0.00     0.287 C 
ATOM     35  H   UNL     1      17.102  -3.628  14.606  1.00  0.00     0.164 HD
ATOM     36  O   UNL     1      19.673  -5.499  15.183  1.00  0.00    -0.266 OA
BRANCH  34  37
ATOM     37  C   UNL     1      17.681  -6.222  14.205  1.00  0.00     0.196 A 
ATOM     38  N   UNL     1      18.040  -7.119  13.255  1.00  0.00    -0.232 NA
ATOM     39  N   UNL     1      16.385  -6.485  14.453  1.00  0.00    -0.341 N 
ATOM     40  C   UNL     1      17.003  -7.908  12.926  1.00  0.00     0.131 A 
ATOM     41  C   UNL     1      15.945  -7.500  13.697  1.00  0.00     0.104 A 
ATOM     42  H   UNL     1      15.806  -5.963  15.145  1.00  0.00     0.168 HD
ENDBRANCH  34  37
ENDBRANCH   8  33
ENDBRANCH   5   8
ENDBRANCH   3   4
ENDBRANCH   2   3
ENDBRANCH   1   2
BRANCH   1  43
ATOM     43  C   UNL     1      21.420   1.986  14.573  1.00  0.00     0.000 C 
BRANCH  43  44
ATOM     44  C   UNL     1      22.715   1.358  14.195  1.00  0.00     0.000 C 
BRANCH  44  45
ATOM     45  C   UNL     1      23.988   1.994  14.595  1.00  0.00     0.000 C 
BRANCH  45  46
ATOM     46  C   UNL     1      24.082   3.284  15.246  1.00  0.00     0.000 C 
BRANCH  46  47
ATOM     47  C   UNL     1      25.297   3.939  15.698  1.00  0.00     0.000 C 
BRANCH  47  48
ATOM     48  C   UNL     1      25.429   4.579  16.993  1.00  0.00     0.000 C 
BRANCH  48  49
ATOM     49  C   UNL     1      26.438   5.723  17.167  1.00  0.00     0.001 C 
BRANCH  49  50
ATOM     50  C   UNL     1      25.802   6.957  17.293  1.00  0.00     0.009 C 
BRANCH  50  51
ATOM     51  C   UNL     1      26.031   8.402  16.837  1.00  0.00    -0.012 C 
BRANCH  51  52
ATOM     52  C   UNL     1      26.767   8.268  15.525  1.00  0.00    -0.018 C 
ATOM     53  C   UNL     1      26.821   9.532  14.693  1.00  0.00     0.033 C 
ATOM     54  C   UNL     1      28.254   8.019  15.567  1.00  0.00     0.033 C 
ATOM     55  C   UNL     1      26.127   7.379  14.520  1.00  0.00     0.033 C 
ATOM     56  C   UNL     1      27.600   9.425  13.404  1.00  0.00     0.101 C 
ATOM     57  C   UNL     1      28.883   7.639  14.231  1.00  0.00     0.101 C 
ATOM     58  C   UNL     1      26.843   7.317  13.161  1.00  0.00     0.101 C 
ATOM     59  C   UNL     1      28.969   8.934  13.393  1.00  0.00     0.051 C 
ATOM     60  C   UNL     1      26.819   8.582  12.417  1.00  0.00     0.051 C 
ATOM     61  C   UNL     1      28.182   6.693  13.383  1.00  0.00     0.051 C 
BRANCH  56  62
ATOM     62  S   UNL     1      27.582  11.077  12.690  1.00  0.00     0.270 S 
ATOM     63  O   UNL     1      26.377  11.131  11.784  1.00  0.00    -0.199 OA
ATOM     64  O   UNL     1      27.493  12.107  13.772  1.00  0.00    -0.199 OA
BRANCH  62  65
ATOM     65  O   UNL     1      28.951  11.243  11.742  1.00  0.00    -0.285 OA
ATOM     66  H   UNL     1      28.668  11.295  10.801  1.00  0.00     0.234 HD
ENDBRANCH  62  65
ENDBRANCH  56  62
BRANCH  57  67
ATOM     67  S   UNL     1      30.569   7.122  14.544  1.00  0.00     0.270 S 
ATOM     68  O   UNL     1      31.313   7.024  13.265  1.00  0.00    -0.199 OA
ATOM     69  O   UNL     1      30.484   5.734  15.149  1.00  0.00    -0.199 OA
BRANCH  67  70
ATOM     70  O   UNL     1      31.268   8.133  15.659  1.00  0.00    -0.285 OA
ATOM     71  H   UNL     1      30.870   7.938  16.554  1.00  0.00     0.234 HD
ENDBRANCH  67  70
ENDBRANCH  57  67
BRANCH  58  72
ATOM     72  S   UNL     1      25.917   6.166  12.132  1.00  0.00     0.270 S 
ATOM     73  O   UNL     1      26.548   4.826  12.137  1.00  0.00    -0.199 OA
ATOM     74  O   UNL     1      24.478   6.075  12.566  1.00  0.00    -0.199 OA
BRANCH  72  75
ATOM     75  O   UNL     1      25.915   6.840  10.582  1.00  0.00    -0.285 OA
ATOM     76  H   UNL     1      25.188   6.437  10.044  1.00  0.00     0.234 HD
ENDBRANCH  72  75
ENDBRANCH  58  72
ENDBRANCH  51  52
BRANCH  51  77
ATOM     77  C   UNL     1      26.873   8.976  17.973  1.00  0.00    -0.018 C 
ATOM     78  C   UNL     1      27.052  10.463  17.894  1.00  0.00     0.033 C 
ATOM     79  C   UNL     1      28.054   8.221  18.406  1.00  0.00     0.033 C 
ATOM     80  C   UNL     1      26.116   9.060  19.304  1.00  0.00     0.033 C 
ATOM     81  C   UNL     1      28.015  11.014  18.962  1.00  0.00     0.101 C 
ATOM     82  C   UNL     1      28.991   8.954  19.393  1.00  0.00     0.101 C 
ATOM     83  C   UNL     1      26.950   9.586  20.437  1.00  0.00     0.101 C 
ATOM     84  C   UNL     1      29.322  10.311  18.957  1.00  0.00     0.051 C 
ATOM     85  C   UNL     1      27.291  11.058  20.258  1.00  0.00     0.051 C 
ATOM     86  C   UNL     1      28.257   8.973  20.718  1.00  0.00     0.051 C 
BRANCH  81  87
ATOM     87  S   UNL     1      28.376  12.730  18.581  1.00  0.00     0.270 S 
ATOM     88  O   UNL     1      27.252  13.219  17.689  1.00  0.00    -0.199 OA
ATOM     89  O   UNL     1      28.476  13.526  19.821  1.00  0.00    -0.199 OA
BRANCH  87  90
ATOM     90  O   UNL     1      29.787  12.741  17.671  1.00  0.00    -0.285 OA
ATOM     91  H   UNL     1      30.271  11.878  17.704  1.00  0.00     0.234 HD
ENDBRANCH  87  90
ENDBRANCH  81  87
BRANCH  82  92
ATOM     92  S   UNL     1      30.420   7.908  19.596  1.00  0.00     0.270 S 
ATOM     93  O   UNL     1      30.535   6.955  18.439  1.00  0.00    -0.199 OA
ATOM     94  O   UNL     1      31.683   8.706  19.660  1.00  0.00    -0.199 OA
BRANCH  92  95
ATOM     95  O   UNL     1      30.316   7.027  21.033  1.00  0.00    -0.285 OA
ATOM     96  H   UNL     1      29.603   6.364  20.997  1.00  0.00     0.234 HD
ENDBRANCH  92  95
ENDBRANCH  82  92
BRANCH  83  97
ATOM     97  S   UNL     1      25.973   9.458  21.933  1.00  0.00     0.270 S 
ATOM     98  O   UNL     1      26.857   9.175  23.104  1.00  0.00    -0.199 OA
ATOM     99  O   UNL     1      25.119  10.657  22.078  1.00  0.00    -0.199 OA
BRANCH  97 100
ATOM    100  O   UNL     1      24.980   8.102  21.708  1.00  0.00    -0.285 OA
ATOM    101  H   UNL     1      24.188   8.347  21.143  1.00  0.00     0.234 HD
ENDBRANCH  97 100
ENDBRANCH  83  97
ENDBRANCH  51  77
BRANCH  51 102
ATOM    102  C   UNL     1      24.741   9.181  16.854  1.00  0.00    -0.018 C 
ATOM    103  C   UNL     1      24.710  10.573  16.401  1.00  0.00     0.033 C 
ATOM    104  C   UNL     1      23.702   8.721  15.778  1.00  0.00     0.033 C 
ATOM    105  C   UNL     1      23.842   8.725  17.969  1.00  0.00     0.033 C 
ATOM    106  C   UNL     1      23.374  11.298  16.714  1.00  0.00     0.101 C 
ATOM    107  C   UNL     1      22.328   9.354  15.984  1.00  0.00     0.101 C 
ATOM    108  C   UNL     1      22.675   9.636  18.268  1.00  0.00     0.101 C 
ATOM    109  C   UNL     1      22.372  10.862  15.683  1.00  0.00     0.051 C 
ATOM    110  C   UNL     1      22.935  11.086  18.134  1.00  0.00     0.051 C 
ATOM    111  C   UNL     1      21.611   9.198  17.221  1.00  0.00     0.051 C 
BRANCH 106 112
ATOM    112  S   UNL     1      23.550  13.059  16.495  1.00  0.00     0.270 S 
ATOM    113  O   UNL     1      22.196  13.706  16.443  1.00  0.00    -0.199 OA
ATOM    114  O   UNL     1      24.382  13.399  15.304  1.00  0.00    -0.199 OA
BRANCH 112 115
ATOM    115  O   UNL     1      24.296  13.639  17.898  1.00  0.00    -0.285 OA
ATOM    116  H   UNL     1      23.624  13.812  18.606  1.00  0.00     0.234 HD
ENDBRANCH 112 115
ENDBRANCH 106 112
BRANCH 107 117
ATOM    117  S   UNL     1      21.328   8.632  14.666  1.00  0.00     0.270 S 
ATOM    118  O   UNL     1      21.206   9.726  13.630  1.00  0.00    -0.199 OA
ATOM    119  O   UNL     1      22.012   7.450  14.102  1.00  0.00    -0.199 OA
BRANCH 117 120
ATOM    120  O   UNL     1      19.776   8.333  15.218  1.00  0.00    -0.285 OA
ATOM    121  H   UNL     1      19.195   8.258  14.402  1.00  0.00     0.234 HD
ENDBRANCH 117 120
ENDBRANCH 107 117
BRANCH 108 122
ATOM    122  S   UNL     1      21.982   9.225  19.822  1.00  0.00     0.270 S 
ATOM    123  O   UNL     1      22.344  10.269  20.830  1.00  0.00    -0.199 OA
ATOM    124  O   UNL     1      22.590   7.925  20.317  1.00  0.00    -0.199 OA
BRANCH 122 125
ATOM    125  O   UNL     1      20.310   9.077  19.705  1.00  0.00    -0.285 OA
ATOM    126  H   UNL     1      20.007   8.516  20.464  1.00  0.00     0.234 HD
ENDBRANCH 122 125
ENDBRANCH 108 122
ENDBRANCH  51 102
ENDBRANCH  50  51
ENDBRANCH  49  50
ENDBRANCH  48  49
ENDBRANCH  47  48
ENDBRANCH  46  47
ENDBRANCH  45  46
ENDBRANCH  44  45
ENDBRANCH  43  44
ENDBRANCH   1  43
TORSDOF 43
ENDMDL
MODEL 3
REMARK VINA RESULT:    -9.829      0.820      3.255
REMARK INTER + INTRA:         -41.090
REMARK INTER:                 -30.923
REMARK INTRA:                 -10.168
REMARK UNBOUND:                -9.141
REMARK SMILES NC(=O)c1ccccc1OCc1cccc(C(=O)NC[C@@H](NC(=O)c2ncc[nH]2)C(=O)NCCCCCCCCCCCC([C@]23C[C@]4(S(=O)(=O)O)C[C@](S(=O)(=O)O)(C2)C[C@](S(=O)(=O)O)(C3)C4)([C@]23C[C@]4(S(=O)(=O)O)C[C@](S(=O)(=O)O)(C2)C[C@](S(=O)(=O)O)(C3)C4)[C@]23C[C@]4(S(=O)(=O)O)C[C@](S(=O)(=O)O)(C2)C[C@](S(=O)(=O)O)(C3)C4)c1
REMARK SMILES IDX 35 1 34 2 33 3 32 4 30 5 31 6 21 8 20 9 19 10 18 11 17 12
REMARK SMILES IDX 16 14 15 15 111 16 14 17 12 18 13 19 11 20 10 21 9 22 4 23
REMARK SMILES IDX 8 24 5 25 7 26 6 27 2 28 1 29 3 30 22 33 23 34 24 36 25 37
REMARK SMILES IDX 26 38 29 39 27 40 28 41 36 43 37 44 38 45 39 46 40 47 41 48
REMARK SMILES IDX 42 49 43 50 44 51 67 52 80 53 87 54 68 55 75 56 82 57 69 58
REMARK SMILES IDX 81 59 74 60 88 61 76 62 77 63 78 64 79 65 83 67 84 68 85 69
REMARK SMILES IDX 86 70 70 72 71 73 72 74 73 75 45 77 46 78 58 79 65 80 47 81
REMARK SMILES IDX 53 82 60 83 52 84 66 85 59 86 48 87 49 88 50 89 51 90 54 92
REMARK SMILES IDX 55 93 56 94 57 95 61 97 62 98 63 99 64 100 89 102 102 103
REMARK SMILES IDX 109 104 90 105 97 106 104 107 91 108 103 109 96 110 110 111
REMARK SMILES IDX 98 112 99 113 100 114 101 115 105 117 106 118 107 119
REMARK SMILES IDX 108 120 92 122 93 123 94 124 95 125
REMARK H PARENT 32 7 19 13 1 31 1 32 22 35 29 42 79 66 86 71 73 76 51 91 57 96
REMARK H PARENT 64 101 101 116 108 121 95 126
REMARK Flexibility Score: inf
ROOT
ATOM      1  C   UNL     1      20.200   0.899  13.975  1.00  0.00     0.002 C 
ENDROOT
BRANCH   1   2
ATOM      2  C   UNL     1      18.897   1.555  13.693  1.00  0.00     0.021 C 
BRANCH   2   3
ATOM      3  C   UNL     1      17.814   0.470  13.677  1.00  0.00     0.116 C 
BRANCH   3   4
ATOM      4  N   UNL     1      18.419  -0.805  13.928  1.00  0.00    -0.354 N 
ATOM      5  C   UNL     1      18.253  -1.391  15.212  1.00  0.00     0.244 C 
ATOM      6  O   UNL     1      17.597  -0.745  16.074  1.00  0.00    -0.273 OA
ATOM      7  H   UNL     1      18.963  -1.292  13.204  1.00  0.00     0.163 HD
BRANCH   5   8
ATOM      8  C   UNL     1      18.788  -2.721  15.608  1.00  0.00     0.191 C 
BRANCH   8   9
ATOM      9  C   UNL     1      19.315  -2.826  16.976  1.00  0.00     0.151 C 
BRANCH   9  10
ATOM     10  N   UNL     1      20.367  -1.943  17.387  1.00  0.00    -0.349 N 
ATOM     11  O   UNL     1      21.698  -2.389  15.546  1.00  0.00    -0.269 OA
ATOM     12  C   UNL     1      21.545  -1.761  16.641  1.00  0.00     0.251 C 
ATOM     13  H   UNL     1      20.234  -1.419  18.290  1.00  0.00     0.163 HD
BRANCH  12  14
ATOM     14  C   UNL     1      22.604  -0.867  17.081  1.00  0.00     0.040 A 
ATOM     15  C   UNL     1      23.929  -1.091  16.851  1.00  0.00     0.014 A 
ATOM     16  C   UNL     1      22.275   0.290  17.815  1.00  0.00     0.021 A 
ATOM     17  C   UNL     1      24.901  -0.213  17.322  1.00  0.00     0.001 A 
ATOM     18  C   UNL     1      23.247   1.143  18.272  1.00  0.00    -0.010 A 
ATOM     19  C   UNL     1      24.589   0.919  18.040  1.00  0.00     0.007 A 
BRANCH  18  20
ATOM     20  C   UNL     1      22.859   2.366  19.043  1.00  0.00     0.265 C 
BRANCH  20  21
ATOM     21  O   UNL     1      21.505   2.633  19.043  1.00  0.00    -0.488 OA
BRANCH  21  22
ATOM     22  C   UNL     1      20.643   2.798  20.089  1.00  0.00     0.132 A 
ATOM     23  C   UNL     1      19.411   2.159  19.982  1.00  0.00     0.081 A 
ATOM     24  C   UNL     1      20.913   3.549  21.223  1.00  0.00     0.047 A 
ATOM     25  C   UNL     1      18.485   2.267  20.969  1.00  0.00     0.018 A 
ATOM     26  C   UNL     1      19.969   3.643  22.202  1.00  0.00     0.004 A 
ATOM     27  C   UNL     1      18.741   3.023  22.125  1.00  0.00     0.001 A 
BRANCH  23  28
ATOM     28  C   UNL     1      19.112   1.348  18.779  1.00  0.00     0.252 C 
ATOM     29  N   UNL     1      19.065   1.951  17.511  1.00  0.00    -0.365 N 
ATOM     30  O   UNL     1      18.907   0.133  18.917  1.00  0.00    -0.269 OA
ATOM     31  H   UNL     1      19.970   2.107  16.992  1.00  0.00     0.159 HD
ATOM     32  H   UNL     1      18.160   2.248  17.076  1.00  0.00     0.159 HD
ENDBRANCH  23  28
ENDBRANCH  21  22
ENDBRANCH  20  21
ENDBRANCH  18  20
ENDBRANCH  12  14
ENDBRANCH   9  10
ENDBRANCH   8   9
BRANCH   8  33
ATOM     33  N   UNL     1      17.961  -3.753  15.076  1.00  0.00    -0.336 N 
ATOM     34  C   UNL     1      18.449  -5.053  14.802  1.00  0.00     0.287 C 
ATOM     35  H   UNL     1      16.943  -3.554  14.829  1.00  0.00     0.164 HD
ATOM     36  O   UNL     1      19.652  -5.301  15.057  1.00  0.00    -0.266 OA
BRANCH  34  37
ATOM     37  C   UNL     1      17.612  -6.090  14.244  1.00  0.00     0.196 A 
ATOM     38  N   UNL     1      17.996  -7.086  13.408  1.00  0.00    -0.232 NA
ATOM     39  N   UNL     1      16.292  -6.279  14.418  1.00  0.00    -0.341 N 
ATOM     40  C   UNL     1      16.950  -7.862  13.076  1.00  0.00     0.131 A 
ATOM     41  C   UNL     1      15.860  -7.342  13.726  1.00  0.00     0.104 A 
ATOM     42  H   UNL     1      15.689  -5.672  15.014  1.00  0.00     0.168 HD
ENDBRANCH  34  37
ENDBRANCH   8  33
ENDBRANCH   5   8
ENDBRANCH   3   4
ENDBRANCH   2   3
ENDBRANCH   1   2
BRANCH   1  43
ATOM     43  C   UNL     1      21.282   1.877  14.404  1.00  0.00     0.000 C 
BRANCH  43  44
ATOM     44  C   UNL     1      22.579   1.246  14.041  1.00  0.00     0.000 C 
BRANCH  44  45
ATOM     45  C   UNL     1      23.849   1.858  14.487  1.00  0.00     0.000 C 
BRANCH  45  46
ATOM     46  C   UNL     1      23.935   3.096  15.235  1.00  0.00     0.000 C 
BRANCH  46  47
ATOM     47  C   UNL     1      25.149   3.745  15.697  1.00  0.00     0.000 C 
BRANCH  47  48
ATOM     48  C   UNL     1      25.224   4.538  16.910  1.00  0.00     0.000 C 
BRANCH  48  49
ATOM     49  C   UNL     1      26.230   5.693  16.991  1.00  0.00     0.001 C 
BRANCH  49  50
ATOM     50  C   UNL     1      25.592   6.926  17.121  1.00  0.00     0.009 C 
BRANCH  50  51
ATOM     51  C   UNL     1      25.839   8.380  16.705  1.00  0.00    -0.012 C 
BRANCH  51  52
ATOM     52  C   UNL     1      26.524   8.274  15.364  1.00  0.00    -0.018 C 
ATOM     53  C   UNL     1      25.999   7.173  14.466  1.00  0.00     0.033 C 
ATOM     54  C   UNL     1      26.342   9.406  14.382  1.00  0.00     0.033 C 
ATOM     55  C   UNL     1      27.949   7.855  15.403  1.00  0.00     0.033 C 
ATOM     56  C   UNL     1      26.639   7.092  13.101  1.00  0.00     0.101 C 
ATOM     57  C   UNL     1      27.258   9.358  13.165  1.00  0.00     0.101 C 
ATOM     58  C   UNL     1      28.609   7.671  14.027  1.00  0.00     0.101 C 
ATOM     59  C   UNL     1      26.705   8.257  12.232  1.00  0.00     0.051 C 
ATOM     60  C   UNL     1      28.051   6.564  13.242  1.00  0.00     0.051 C 
ATOM     61  C   UNL     1      28.653   9.009  13.364  1.00  0.00     0.051 C 
BRANCH  56  62
ATOM     62  S   UNL     1      25.759   5.783  12.232  1.00  0.00     0.270 S 
ATOM     63  O   UNL     1      25.879   6.100  10.762  1.00  0.00    -0.199 OA
ATOM     64  O   UNL     1      26.365   4.452  12.551  1.00  0.00    -0.199 OA
BRANCH  62  65
ATOM     65  O   UNL     1      24.142   5.883  12.654  1.00  0.00    -0.285 OA
ATOM     66  H   UNL     1      24.040   6.611  13.308  1.00  0.00     0.234 HD
ENDBRANCH  62  65
ENDBRANCH  56  62
BRANCH  57  67
ATOM     67  S   UNL     1      27.083  10.906  12.283  1.00  0.00     0.270 S 
ATOM     68  O   UNL     1      26.251  10.708  11.073  1.00  0.00    -0.199 OA
ATOM     69  O   UNL     1      28.478  11.302  11.837  1.00  0.00    -0.199 OA
BRANCH  67  70
ATOM     70  O   UNL     1      26.516  12.078  13.313  1.00  0.00    -0.285 OA
ATOM     71  H   UNL     1      25.856  12.640  12.816  1.00  0.00     0.234 HD
ENDBRANCH  67  70
ENDBRANCH  57  67
BRANCH  58  72
ATOM     72  S   UNL     1      30.321   7.202  14.325  1.00  0.00     0.270 S 
ATOM     73  O   UNL     1      31.174   7.545  13.163  1.00  0.00    -0.199 OA
ATOM     74  O   UNL     1      30.856   7.838  15.579  1.00  0.00    -0.199 OA
BRANCH  72  75
ATOM     75  O   UNL     1      30.296   5.534  14.597  1.00  0.00    -0.285 OA
ATOM     76  H   UNL     1      30.673   5.062  13.813  1.00  0.00     0.234 HD
ENDBRANCH  72  75
ENDBRANCH  58  72
ENDBRANCH  51  52
BRANCH  51  77
ATOM     77  C   UNL     1      26.736   8.895  17.828  1.00  0.00    -0.018 C 
ATOM     78  C   UNL     1      27.013  10.366  17.748  1.00  0.00     0.033 C 
ATOM     79  C   UNL     1      27.870   8.061  18.242  1.00  0.00     0.033 C 
ATOM     80  C   UNL     1      26.007   9.027  19.171  1.00  0.00     0.033 C 
ATOM     81  C   UNL     1      28.028  10.850  18.800  1.00  0.00     0.101 C 
ATOM     82  C   UNL     1      28.870   8.728  19.215  1.00  0.00     0.101 C 
ATOM     83  C   UNL     1      26.893   9.494  20.291  1.00  0.00     0.101 C 
ATOM     84  C   UNL     1      29.284  10.061  18.773  1.00  0.00     0.051 C 
ATOM     85  C   UNL     1      27.329  10.940  20.108  1.00  0.00     0.051 C 
ATOM     86  C   UNL     1      28.161   8.794  20.551  1.00  0.00     0.051 C 
BRANCH  81  87
ATOM     87  S   UNL     1      28.497  12.539  18.414  1.00  0.00     0.270 S 
ATOM     88  O   UNL     1      29.996  12.627  18.617  1.00  0.00    -0.199 OA
ATOM     89  O   UNL     1      28.111  12.880  17.030  1.00  0.00    -0.199 OA
BRANCH  87  90
ATOM     90  O   UNL     1      27.771  13.521  19.566  1.00  0.00    -0.285 OA
ATOM     91  H   UNL     1      26.982  13.098  19.988  1.00  0.00     0.234 HD
ENDBRANCH  87  90
ENDBRANCH  81  87
BRANCH  82  92
ATOM     92  S   UNL     1      30.228   7.589  19.393  1.00  0.00     0.270 S 
ATOM     93  O   UNL     1      31.535   8.334  19.411  1.00  0.00    -0.199 OA
ATOM     94  O   UNL     1      30.130   6.807  20.664  1.00  0.00    -0.199 OA
BRANCH  92  95
ATOM     95  O   UNL     1      30.243   6.474  18.124  1.00  0.00    -0.285 OA
ATOM     96  H   UNL     1      29.472   6.585  17.540  1.00  0.00     0.234 HD
ENDBRANCH  92  95
ENDBRANCH  82  92
BRANCH  83  97
ATOM     97  S   UNL     1      25.934   9.428  21.803  1.00  0.00     0.270 S 
ATOM     98  O   UNL     1      25.112   8.181  21.839  1.00  0.00    -0.199 OA
ATOM     99  O   UNL     1      26.824   9.617  22.969  1.00  0.00    -0.199 OA
BRANCH  97 100
ATOM    100  O   UNL     1      24.863  10.739  21.713  1.00  0.00    -0.285 OA
ATOM    101  H   UNL     1      25.368  11.602  21.793  1.00  0.00     0.234 HD
ENDBRANCH  97 100
ENDBRANCH  83  97
ENDBRANCH  51  77
BRANCH  51 102
ATOM    102  C   UNL     1      24.570   9.188  16.797  1.00  0.00    -0.018 C 
ATOM    103  C   UNL     1      24.569  10.610  16.445  1.00  0.00     0.033 C 
ATOM    104  C   UNL     1      23.506   8.833  15.706  1.00  0.00     0.033 C 
ATOM    105  C   UNL     1      23.674   8.676  17.889  1.00  0.00     0.033 C 
ATOM    106  C   UNL     1      23.258  11.344  16.829  1.00  0.00     0.101 C 
ATOM    107  C   UNL     1      22.151   9.484  15.977  1.00  0.00     0.101 C 
ATOM    108  C   UNL     1      22.535   9.592  18.269  1.00  0.00     0.101 C 
ATOM    109  C   UNL     1      22.231  11.008  15.784  1.00  0.00     0.051 C 
ATOM    110  C   UNL     1      22.831  11.041  18.236  1.00  0.00     0.051 C 
ATOM    111  C   UNL     1      21.446   9.257  17.210  1.00  0.00     0.051 C 
BRANCH 106 112
ATOM    112  S   UNL     1      23.477  13.110  16.733  1.00  0.00     0.270 S 
ATOM    113  O   UNL     1      22.833  13.770  17.919  1.00  0.00    -0.199 OA
ATOM    114  O   UNL     1      22.985  13.671  15.442  1.00  0.00    -0.199 OA
BRANCH 112 115
ATOM    115  O   UNL     1      25.138  13.391  16.883  1.00  0.00    -0.285 OA
ATOM    116  H   UNL     1      25.457  13.999  16.168  1.00  0.00     0.234 HD
ENDBRANCH 112 115
ENDBRANCH 106 112
BRANCH 107 117
ATOM    117  S   UNL     1      21.116   8.884  14.625  1.00  0.00     0.270 S 
ATOM    118  O   UNL     1      21.981   7.884  13.891  1.00  0.00    -0.199 OA
ATOM    119  O   UNL     1      19.906   8.231  15.166  1.00  0.00    -0.199 OA
BRANCH 117 120
ATOM    120  O   UNL     1      20.807  10.122  13.543  1.00  0.00    -0.285 OA
ATOM    121  H   UNL     1      19.894   9.944  13.163  1.00  0.00     0.234 HD
ENDBRANCH 117 120
ENDBRANCH 107 117
BRANCH 108 122
ATOM    122  S   UNL     1      21.851   9.088  19.801  1.00  0.00     0.270 S 
ATOM    123  O   UNL     1      20.361   9.034  19.696  1.00  0.00    -0.199 OA
ATOM    124  O   UNL     1      22.168  10.127  20.861  1.00  0.00    -0.199 OA
BRANCH 122 125
ATOM    125  O   UNL     1      22.462   7.587  20.256  1.00  0.00    -0.285 OA
ATOM    126  H   UNL     1      21.700   6.954  20.289  1.00  0.00     0.234 HD
ENDBRANCH 122 125
ENDBRANCH 108 122
ENDBRANCH  51 102
ENDBRANCH  50  51
ENDBRANCH  49  50
ENDBRANCH  48  49
ENDBRANCH  47  48
ENDBRANCH  46  47
ENDBRANCH  45  46
ENDBRANCH  44  45
ENDBRANCH  43  44
ENDBRANCH   1  43
TORSDOF 43
ENDMDL
MODEL 4
REMARK VINA RESULT:    -9.742      1.590      3.643
REMARK INTER + INTRA:         -40.809
REMARK INTER:                 -30.513
REMARK INTRA:                 -10.296
REMARK UNBOUND:                -9.141
REMARK SMILES NC(=O)c1ccccc1OCc1cccc(C(=O)NC[C@@H](NC(=O)c2ncc[nH]2)C(=O)NCCCCCCCCCCCC([C@]23C[C@]4(S(=O)(=O)O)C[C@](S(=O)(=O)O)(C2)C[C@](S(=O)(=O)O)(C3)C4)([C@]23C[C@]4(S(=O)(=O)O)C[C@](S(=O)(=O)O)(C2)C[C@](S(=O)(=O)O)(C3)C4)[C@]23C[C@]4(S(=O)(=O)O)C[C@](S(=O)(=O)O)(C2)C[C@](S(=O)(=O)O)(C3)C4)c1
REMARK SMILES IDX 35 1 34 2 33 3 32 4 30 5 31 6 21 8 20 9 19 10 18 11 17 12
REMARK SMILES IDX 16 14 15 15 111 16 14 17 12 18 13 19 11 20 10 21 9 22 4 23
REMARK SMILES IDX 8 24 5 25 7 26 6 27 2 28 1 29 3 30 22 33 23 34 24 36 25 37
REMARK SMILES IDX 26 38 29 39 27 40 28 41 36 43 37 44 38 45 39 46 40 47 41 48
REMARK SMILES IDX 42 49 43 50 44 51 67 52 80 53 87 54 68 55 75 56 82 57 69 58
REMARK SMILES IDX 81 59 74 60 88 61 76 62 77 63 78 64 79 65 83 67 84 68 85 69
REMARK SMILES IDX 86 70 70 72 71 73 72 74 73 75 45 77 46 78 58 79 65 80 47 81
REMARK SMILES IDX 53 82 60 83 52 84 66 85 59 86 48 87 49 88 50 89 51 90 54 92
REMARK SMILES IDX 55 93 56 94 57 95 61 97 62 98 63 99 64 100 89 102 102 103
REMARK SMILES IDX 109 104 90 105 97 106 104 107 91 108 103 109 96 110 110 111
REMARK SMILES IDX 98 112 99 113 100 114 101 115 105 117 106 118 107 119
REMARK SMILES IDX 108 120 92 122 93 123 94 124 95 125
REMARK H PARENT 32 7 19 13 1 31 1 32 22 35 29 42 79 66 86 71 73 76 51 91 57 96
REMARK H PARENT 64 101 101 116 108 121 95 126
REMARK Flexibility Score: inf
ROOT
ATOM      1  C   UNL     1      20.551   1.144  14.140  1.00  0.00     0.002 C 
ENDROOT
BRANCH   1   2
ATOM      2  C   UNL     1      19.190   1.539  14.586  1.00  0.00     0.021 C 
BRANCH   2   3
ATOM      3  C   UNL     1      18.195   0.506  14.046  1.00  0.00     0.116 C 
BRANCH   3   4
ATOM      4  N   UNL     1      18.791  -0.797  14.100  1.00  0.00    -0.354 N 
ATOM      5  C   UNL     1      18.476  -1.639  15.201  1.00  0.00     0.244 C 
ATOM      6  O   UNL     1      17.701  -1.185  16.086  1.00  0.00    -0.273 OA
ATOM      7  H   UNL     1      19.434  -1.123  13.368  1.00  0.00     0.163 HD
BRANCH   5   8
ATOM      8  C   UNL     1      18.985  -3.025  15.375  1.00  0.00     0.191 C 
BRANCH   8   9
ATOM      9  C   UNL     1      19.605  -3.330  16.673  1.00  0.00     0.151 C 
BRANCH   9  10
ATOM     10  N   UNL     1      20.602  -2.440  17.193  1.00  0.00    -0.349 N 
ATOM     11  O   UNL     1      21.687  -2.188  15.164  1.00  0.00    -0.269 OA
ATOM     12  C   UNL     1      21.629  -1.898  16.401  1.00  0.00     0.251 C 
ATOM     13  H   UNL     1      20.546  -2.198  18.215  1.00  0.00     0.163 HD
BRANCH  12  14
ATOM     14  C   UNL     1      22.636  -1.006  16.952  1.00  0.00     0.040 A 
ATOM     15  C   UNL     1      23.978  -1.231  16.863  1.00  0.00     0.014 A 
ATOM     16  C   UNL     1      22.232   0.150  17.648  1.00  0.00     0.021 A 
ATOM     17  C   UNL     1      24.896  -0.355  17.435  1.00  0.00     0.001 A 
ATOM     18  C   UNL     1      23.151   1.002  18.207  1.00  0.00    -0.010 A 
ATOM     19  C   UNL     1      24.509   0.777  18.118  1.00  0.00     0.007 A 
BRANCH  18  20
ATOM     20  C   UNL     1      22.684   2.224  18.934  1.00  0.00     0.265 C 
BRANCH  20  21
ATOM     21  O   UNL     1      21.312   2.352  19.010  1.00  0.00    -0.488 OA
BRANCH  21  22
ATOM     22  C   UNL     1      20.511   2.584  20.091  1.00  0.00     0.132 A 
ATOM     23  C   UNL     1      19.179   2.200  19.967  1.00  0.00     0.081 A 
ATOM     24  C   UNL     1      20.933   3.169  21.275  1.00  0.00     0.047 A 
ATOM     25  C   UNL     1      18.303   2.393  20.987  1.00  0.00     0.018 A 
ATOM     26  C   UNL     1      20.037   3.353  22.286  1.00  0.00     0.004 A 
ATOM     27  C   UNL     1      18.713   2.984  22.193  1.00  0.00     0.001 A 
BRANCH  23  28
ATOM     28  C   UNL     1      18.716   1.567  18.710  1.00  0.00     0.252 C 
ATOM     29  N   UNL     1      19.085   0.247  18.404  1.00  0.00    -0.365 N 
ATOM     30  O   UNL     1      17.999   2.225  17.942  1.00  0.00    -0.269 OA
ATOM     31  H   UNL     1      18.530  -0.544  18.826  1.00  0.00     0.159 HD
ATOM     32  H   UNL     1      19.893   0.034  17.774  1.00  0.00     0.159 HD
ENDBRANCH  23  28
ENDBRANCH  21  22
ENDBRANCH  20  21
ENDBRANCH  18  20
ENDBRANCH  12  14
ENDBRANCH   9  10
ENDBRANCH   8   9
BRANCH   8  33
ATOM     33  N   UNL     1      18.081  -3.951  14.777  1.00  0.00    -0.336 N 
ATOM     34  C   UNL     1      18.422  -5.306  14.548  1.00  0.00     0.287 C 
ATOM     35  H   UNL     1      17.121  -3.628  14.444  1.00  0.00     0.164 HD
ATOM     36  O   UNL     1      19.558  -5.700  14.904  1.00  0.00    -0.266 OA
BRANCH  34  37
ATOM     37  C   UNL     1      17.510  -6.236  13.922  1.00  0.00     0.196 A 
ATOM     38  N   UNL     1      16.532  -5.944  13.030  1.00  0.00    -0.232 NA
ATOM     39  N   UNL     1      17.425  -7.567  14.100  1.00  0.00    -0.341 N 
ATOM     40  C   UNL     1      15.867  -7.054  12.669  1.00  0.00     0.131 A 
ATOM     41  C   UNL     1      16.442  -8.093  13.356  1.00  0.00     0.104 A 
ATOM     42  H   UNL     1      18.047  -8.111  14.735  1.00  0.00     0.168 HD
ENDBRANCH  34  37
ENDBRANCH   8  33
ENDBRANCH   5   8
ENDBRANCH   3   4
ENDBRANCH   2   3
ENDBRANCH   1   2
BRANCH   1  43
ATOM     43  C   UNL     1      21.652   1.997  14.749  1.00  0.00     0.000 C 
BRANCH  43  44
ATOM     44  C   UNL     1      22.931   1.496  14.177  1.00  0.00     0.000 C 
BRANCH  44  45
ATOM     45  C   UNL     1      24.220   1.987  14.706  1.00  0.00     0.000 C 
BRANCH  45  46
ATOM     46  C   UNL     1      24.363   3.175  15.522  1.00  0.00     0.000 C 
BRANCH  46  47
ATOM     47  C   UNL     1      25.589   3.669  16.124  1.00  0.00     0.000 C 
BRANCH  47  48
ATOM     48  C   UNL     1      25.644   4.300  17.430  1.00  0.00     0.000 C 
BRANCH  48  49
ATOM     49  C   UNL     1      25.157   5.746  17.587  1.00  0.00     0.001 C 
BRANCH  49  50
ATOM     50  C   UNL     1      26.212   6.622  17.838  1.00  0.00     0.009 C 
BRANCH  50  51
ATOM     51  C   UNL     1      26.701   7.983  17.329  1.00  0.00    -0.012 C 
BRANCH  51  52
ATOM     52  C   UNL     1      26.125   8.092  15.938  1.00  0.00    -0.018 C 
ATOM     53  C   UNL     1      26.604   9.288  15.142  1.00  0.00     0.033 C 
ATOM     54  C   UNL     1      26.507   7.041  14.926  1.00  0.00     0.033 C 
ATOM     55  C   UNL     1      24.665   8.362  15.870  1.00  0.00     0.033 C 
ATOM     56  C   UNL     1      26.075   9.380  13.731  1.00  0.00     0.101 C 
ATOM     57  C   UNL     1      25.696   7.062  13.636  1.00  0.00     0.101 C 
ATOM     58  C   UNL     1      24.106   8.553  14.450  1.00  0.00     0.101 C 
ATOM     59  C   UNL     1      26.206   8.263  12.807  1.00  0.00     0.051 C 
ATOM     60  C   UNL     1      24.608   9.753  13.770  1.00  0.00     0.051 C 
ATOM     61  C   UNL     1      24.260   7.256  13.725  1.00  0.00     0.051 C 
BRANCH  56  62
ATOM     62  S   UNL     1      26.881  10.816  13.005  1.00  0.00     0.270 S 
ATOM     63  O   UNL     1      26.866  10.597  11.512  1.00  0.00    -0.199 OA
ATOM     64  O   UNL     1      26.145  12.065  13.377  1.00  0.00    -0.199 OA
BRANCH  62  65
ATOM     65  O   UNL     1      28.476  10.822  13.513  1.00  0.00    -0.285 OA
ATOM     66  H   UNL     1      28.882   9.963  13.259  1.00  0.00     0.234 HD
ENDBRANCH  62  65
ENDBRANCH  56  62
BRANCH  57  67
ATOM     67  S   UNL     1      26.107   5.590  12.702  1.00  0.00     0.270 S 
ATOM     68  O   UNL     1      26.348   5.942  11.282  1.00  0.00    -0.199 OA
ATOM     69  O   UNL     1      24.887   4.691  12.765  1.00  0.00    -0.199 OA
BRANCH  67  70
ATOM     70  O   UNL     1      27.373   4.800  13.429  1.00  0.00    -0.285 OA
ATOM     71  H   UNL     1      27.920   4.361  12.718  1.00  0.00     0.234 HD
ENDBRANCH  67  70
ENDBRANCH  57  67
BRANCH  58  72
ATOM     72  S   UNL     1      22.335   8.829  14.615  1.00  0.00     0.270 S 
ATOM     73  O   UNL     1      21.915  10.034  13.864  1.00  0.00    -0.199 OA
ATOM     74  O   UNL     1      21.547   7.627  14.169  1.00  0.00    -0.199 OA
BRANCH  72  75
ATOM     75  O   UNL     1      22.055   9.008  16.273  1.00  0.00    -0.285 OA
ATOM     76  H   UNL     1      21.506   9.816  16.432  1.00  0.00     0.234 HD
ENDBRANCH  72  75
ENDBRANCH  58  72
ENDBRANCH  51  52
BRANCH  51  77
ATOM     77  C   UNL     1      28.219   7.822  17.369  1.00  0.00    -0.018 C 
ATOM     78  C   UNL     1      28.770   7.672  18.756  1.00  0.00     0.033 C 
ATOM     79  C   UNL     1      29.022   8.643  16.456  1.00  0.00     0.033 C 
ATOM     80  C   UNL     1      28.690   6.425  16.947  1.00  0.00     0.033 C 
ATOM     81  C   UNL     1      30.309   7.651  18.797  1.00  0.00     0.101 C 
ATOM     82  C   UNL     1      30.550   8.609  16.697  1.00  0.00     0.101 C 
ATOM     83  C   UNL     1      30.185   6.273  16.944  1.00  0.00     0.101 C 
ATOM     84  C   UNL     1      30.905   8.819  18.101  1.00  0.00     0.051 C 
ATOM     85  C   UNL     1      30.764   6.310  18.350  1.00  0.00     0.051 C 
ATOM     86  C   UNL     1      31.011   7.248  16.217  1.00  0.00     0.051 C 
BRANCH  81  87
ATOM     87  S   UNL     1      30.841   7.770  20.506  1.00  0.00     0.270 S 
ATOM     88  O   UNL     1      29.982   8.839  21.152  1.00  0.00    -0.199 OA
ATOM     89  O   UNL     1      30.695   6.466  21.185  1.00  0.00    -0.199 OA
BRANCH  87  90
ATOM     90  O   UNL     1      32.423   8.333  20.487  1.00  0.00    -0.285 OA
ATOM     91  H   UNL     1      32.676   8.731  19.617  1.00  0.00     0.234 HD
ENDBRANCH  87  90
ENDBRANCH  81  87
BRANCH  82  92
ATOM     92  S   UNL     1      31.255   9.823  15.600  1.00  0.00     0.270 S 
ATOM     93  O   UNL     1      30.572  11.150  15.784  1.00  0.00    -0.199 OA
ATOM     94  O   UNL     1      32.715  10.020  15.859  1.00  0.00    -0.199 OA
BRANCH  92  95
ATOM     95  O   UNL     1      31.097   9.337  13.991  1.00  0.00    -0.285 OA
ATOM     96  H   UNL     1      31.551   8.491  13.824  1.00  0.00     0.234 HD
ENDBRANCH  92  95
ENDBRANCH  82  92
BRANCH  83  97
ATOM     97  S   UNL     1      30.561   4.655  16.270  1.00  0.00     0.270 S 
ATOM     98  O   UNL     1      29.309   3.986  15.804  1.00  0.00    -0.199 OA
ATOM     99  O   UNL     1      31.618   4.775  15.241  1.00  0.00    -0.199 OA
BRANCH  97 100
ATOM    100  O   UNL     1      31.165   3.754  17.572  1.00  0.00    -0.285 OA
ATOM    101  H   UNL     1      31.201   2.782  17.331  1.00  0.00     0.234 HD
ENDBRANCH  97 100
ENDBRANCH  83  97
ENDBRANCH  51  77
BRANCH  51 102
ATOM    102  C   UNL     1      26.382   9.073  18.321  1.00  0.00    -0.018 C 
ATOM    103  C   UNL     1      27.236  10.259  18.419  1.00  0.00     0.033 C 
ATOM    104  C   UNL     1      25.113   9.914  17.960  1.00  0.00     0.033 C 
ATOM    105  C   UNL     1      25.711   8.518  19.545  1.00  0.00     0.033 C 
ATOM    106  C   UNL     1      26.916  11.154  19.644  1.00  0.00     0.101 C 
ATOM    107  C   UNL     1      24.678  10.833  19.099  1.00  0.00     0.101 C 
ATOM    108  C   UNL     1      25.631   9.463  20.720  1.00  0.00     0.101 C 
ATOM    109  C   UNL     1      25.698  11.966  19.304  1.00  0.00     0.051 C 
ATOM    110  C   UNL     1      26.794  10.357  20.911  1.00  0.00     0.051 C 
ATOM    111  C   UNL     1      24.367  10.312  20.403  1.00  0.00     0.051 C 
BRANCH 106 112
ATOM    112  S   UNL     1      28.220  12.339  19.913  1.00  0.00     0.270 S 
ATOM    113  O   UNL     1      27.633  13.682  20.239  1.00  0.00    -0.199 OA
ATOM    114  O   UNL     1      29.169  12.404  18.764  1.00  0.00    -0.199 OA
BRANCH 112 115
ATOM    115  O   UNL     1      29.040  11.834  21.304  1.00  0.00    -0.285 OA
ATOM    116  H   UNL     1      28.486  11.200  21.827  1.00  0.00     0.234 HD
ENDBRANCH 112 115
ENDBRANCH 106 112
BRANCH 107 117
ATOM    117  S   UNL     1      23.196  11.635  18.451  1.00  0.00     0.270 S 
ATOM    118  O   UNL     1      22.070  10.674  18.761  1.00  0.00    -0.199 OA
ATOM    119  O   UNL     1      22.981  12.929  19.133  1.00  0.00    -0.199 OA
BRANCH 117 120
ATOM    120  O   UNL     1      23.279  11.739  16.783  1.00  0.00    -0.285 OA
ATOM    121  H   UNL     1      22.618  11.073  16.425  1.00  0.00     0.234 HD
ENDBRANCH 117 120
ENDBRANCH 107 117
BRANCH 108 122
ATOM    122  S   UNL     1      25.229   8.574  22.174  1.00  0.00     0.270 S 
ATOM    123  O   UNL     1      23.928   9.063  22.723  1.00  0.00    -0.199 OA
ATOM    124  O   UNL     1      26.274   8.852  23.239  1.00  0.00    -0.199 OA
BRANCH 122 125
ATOM    125  O   UNL     1      25.148   6.924  21.855  1.00  0.00    -0.285 OA
ATOM    126  H   UNL     1      26.066   6.558  21.947  1.00  0.00     0.234 HD
ENDBRANCH 122 125
ENDBRANCH 108 122
ENDBRANCH  51 102
ENDBRANCH  50  51
ENDBRANCH  49  50
ENDBRANCH  48  49
ENDBRANCH  47  48
ENDBRANCH  46  47
ENDBRANCH  45  46
ENDBRANCH  44  45
ENDBRANCH  43  44
ENDBRANCH   1  43
TORSDOF 43
ENDMDL
MODEL 5
REMARK VINA RESULT:    -9.639      3.363      7.966
REMARK INTER + INTRA:         -40.474
REMARK INTER:                 -28.533
REMARK INTRA:                 -11.941
REMARK UNBOUND:                -9.141
REMARK SMILES NC(=O)c1ccccc1OCc1cccc(C(=O)NC[C@@H](NC(=O)c2ncc[nH]2)C(=O)NCCCCCCCCCCCC([C@]23C[C@]4(S(=O)(=O)O)C[C@](S(=O)(=O)O)(C2)C[C@](S(=O)(=O)O)(C3)C4)([C@]23C[C@]4(S(=O)(=O)O)C[C@](S(=O)(=O)O)(C2)C[C@](S(=O)(=O)O)(C3)C4)[C@]23C[C@]4(S(=O)(=O)O)C[C@](S(=O)(=O)O)(C2)C[C@](S(=O)(=O)O)(C3)C4)c1
REMARK SMILES IDX 35 1 34 2 33 3 32 4 30 5 31 6 21 8 20 9 19 10 18 11 17 12
REMARK SMILES IDX 16 14 15 15 111 16 14 17 12 18 13 19 11 20 10 21 9 22 4 23
REMARK SMILES IDX 8 24 5 25 7 26 6 27 2 28 1 29 3 30 22 33 23 34 24 36 25 37
REMARK SMILES IDX 26 38 29 39 27 40 28 41 36 43 37 44 38 45 39 46 40 47 41 48
REMARK SMILES IDX 42 49 43 50 44 51 67 52 80 53 87 54 68 55 75 56 82 57 69 58
REMARK SMILES IDX 81 59 74 60 88 61 76 62 77 63 78 64 79 65 83 67 84 68 85 69
REMARK SMILES IDX 86 70 70 72 71 73 72 74 73 75 45 77 46 78 58 79 65 80 47 81
REMARK SMILES IDX 53 82 60 83 52 84 66 85 59 86 48 87 49 88 50 89 51 90 54 92
REMARK SMILES IDX 55 93 56 94 57 95 61 97 62 98 63 99 64 100 89 102 102 103
REMARK SMILES IDX 109 104 90 105 97 106 104 107 91 108 103 109 96 110 110 111
REMARK SMILES IDX 98 112 99 113 100 114 101 115 105 117 106 118 107 119
REMARK SMILES IDX 108 120 92 122 93 123 94 124 95 125
REMARK H PARENT 32 7 19 13 1 31 1 32 22 35 29 42 79 66 86 71 73 76 51 91 57 96
REMARK H PARENT 64 101 101 116 108 121 95 126
REMARK Flexibility Score: inf
ROOT
ATOM      1  C   UNL     1      22.545   7.089  12.351  1.00  0.00     0.002 C 
ENDROOT
BRANCH   1   2
ATOM      2  C   UNL     1      22.589   6.174  13.521  1.00  0.00     0.021 C 
BRANCH   2   3
ATOM      3  C   UNL     1      23.765   6.596  14.410  1.00  0.00     0.116 C 
BRANCH   3   4
ATOM      4  N   UNL     1      24.194   5.471  15.189  1.00  0.00    -0.354 N 
ATOM      5  C   UNL     1      24.828   4.389  14.522  1.00  0.00     0.244 C 
ATOM      6  O   UNL     1      24.962   4.466  13.270  1.00  0.00    -0.273 OA
ATOM      7  H   UNL     1      24.049   5.437  16.206  1.00  0.00     0.163 HD
BRANCH   5   8
ATOM      8  C   UNL     1      25.360   3.176  15.197  1.00  0.00     0.191 C 
BRANCH   8   9
ATOM      9  C   UNL     1      24.638   1.921  14.941  1.00  0.00     0.151 C 
BRANCH   9  10
ATOM     10  N   UNL     1      23.244   1.841  15.270  1.00  0.00    -0.349 N 
ATOM     11  O   UNL     1      22.571   1.458  13.089  1.00  0.00    -0.269 OA
ATOM     12  C   UNL     1      22.245   1.614  14.308  1.00  0.00     0.251 C 
ATOM     13  H   UNL     1      22.979   1.963  16.281  1.00  0.00     0.163 HD
BRANCH  12  14
ATOM     14  C   UNL     1      20.837   1.546  14.662  1.00  0.00     0.040 A 
ATOM     15  C   UNL     1      19.821   1.786  13.784  1.00  0.00     0.014 A 
ATOM     16  C   UNL     1      20.469   1.246  15.989  1.00  0.00     0.021 A 
ATOM     17  C   UNL     1      18.491   1.735  14.188  1.00  0.00     0.001 A 
ATOM     18  C   UNL     1      19.152   1.201  16.369  1.00  0.00    -0.010 A 
ATOM     19  C   UNL     1      18.123   1.442  15.482  1.00  0.00     0.007 A 
BRANCH  18  20
ATOM     20  C   UNL     1      18.799   0.871  17.786  1.00  0.00     0.265 C 
BRANCH  20  21
ATOM     21  O   UNL     1      18.776   1.960  18.634  1.00  0.00    -0.488 OA
BRANCH  21  22
ATOM     22  C   UNL     1      19.641   2.314  19.630  1.00  0.00     0.132 A 
ATOM     23  C   UNL     1      19.067   2.743  20.824  1.00  0.00     0.081 A 
ATOM     24  C   UNL     1      21.023   2.276  19.526  1.00  0.00     0.047 A 
ATOM     25  C   UNL     1      19.844   3.120  21.872  1.00  0.00     0.018 A 
ATOM     26  C   UNL     1      21.784   2.658  20.591  1.00  0.00     0.004 A 
ATOM     27  C   UNL     1      21.245   3.088  21.785  1.00  0.00     0.001 A 
BRANCH  23  28
ATOM     28  C   UNL     1      17.592   2.782  20.951  1.00  0.00     0.252 C 
ATOM     29  N   UNL     1      16.948   2.035  21.952  1.00  0.00    -0.365 N 
ATOM     30  O   UNL     1      16.944   3.484  20.161  1.00  0.00    -0.269 OA
ATOM     31  H   UNL     1      16.888   2.438  22.924  1.00  0.00     0.159 HD
ATOM     32  H   UNL     1      16.531   1.095  21.754  1.00  0.00     0.159 HD
ENDBRANCH  23  28
ENDBRANCH  21  22
ENDBRANCH  20  21
ENDBRANCH  18  20
ENDBRANCH  12  14
ENDBRANCH   9  10
ENDBRANCH   8   9
BRANCH   8  33
ATOM     33  N   UNL     1      26.786   3.199  15.183  1.00  0.00    -0.336 N 
ATOM     34  C   UNL     1      27.559   3.124  16.366  1.00  0.00     0.287 C 
ATOM     35  H   UNL     1      27.313   3.316  14.264  1.00  0.00     0.164 HD
ATOM     36  O   UNL     1      26.958   3.017  17.462  1.00  0.00    -0.266 OA
BRANCH  34  37
ATOM     37  C   UNL     1      29.003   3.169  16.348  1.00  0.00     0.196 A 
ATOM     38  N   UNL     1      29.854   2.162  16.666  1.00  0.00    -0.232 NA
ATOM     39  N   UNL     1      29.801   4.205  16.034  1.00  0.00    -0.341 N 
ATOM     40  C   UNL     1      31.131   2.562  16.552  1.00  0.00     0.131 A 
ATOM     41  C   UNL     1      31.094   3.871  16.146  1.00  0.00     0.104 A 
ATOM     42  H   UNL     1      29.451   5.143  15.742  1.00  0.00     0.168 HD
ENDBRANCH  34  37
ENDBRANCH   8  33
ENDBRANCH   5   8
ENDBRANCH   3   4
ENDBRANCH   2   3
ENDBRANCH   1   2
BRANCH   1  43
ATOM     43  C   UNL     1      23.204   8.433  12.617  1.00  0.00     0.000 C 
BRANCH  43  44
ATOM     44  C   UNL     1      22.127   9.453  12.499  1.00  0.00     0.000 C 
BRANCH  44  45
ATOM     45  C   UNL     1      21.551  10.064  13.715  1.00  0.00     0.000 C 
BRANCH  45  46
ATOM     46  C   UNL     1      20.524   9.443  14.527  1.00  0.00     0.000 C 
BRANCH  46  47
ATOM     47  C   UNL     1      20.733   8.606  15.695  1.00  0.00     0.000 C 
BRANCH  47  48
ATOM     48  C   UNL     1      21.509   9.019  16.850  1.00  0.00     0.000 C 
BRANCH  48  49
ATOM     49  C   UNL     1      23.005   8.682  16.908  1.00  0.00     0.001 C 
BRANCH  49  50
ATOM     50  C   UNL     1      23.794   9.774  16.551  1.00  0.00     0.009 C 
BRANCH  50  51
ATOM     51  C   UNL     1      25.088  10.442  17.029  1.00  0.00    -0.012 C 
BRANCH  51  52
ATOM     52  C   UNL     1      25.317   9.872  18.408  1.00  0.00    -0.018 C 
ATOM     53  C   UNL     1      25.095   8.378  18.523  1.00  0.00     0.033 C 
ATOM     54  C   UNL     1      26.721   9.887  18.959  1.00  0.00     0.033 C 
ATOM     55  C   UNL     1      24.352  10.310  19.450  1.00  0.00     0.033 C 
ATOM     56  C   UNL     1      25.372   7.787  19.885  1.00  0.00     0.101 C 
ATOM     57  C   UNL     1      26.837   9.539  20.439  1.00  0.00     0.101 C 
ATOM     58  C   UNL     1      24.546   9.658  20.829  1.00  0.00     0.101 C 
ATOM     59  C   UNL     1      26.644   8.010  20.555  1.00  0.00     0.051 C 
ATOM     60  C   UNL     1      24.284   8.214  20.846  1.00  0.00     0.051 C 
ATOM     61  C   UNL     1      25.869  10.107  21.359  1.00  0.00     0.051 C 
BRANCH  56  62
ATOM     62  S   UNL     1      25.132   6.013  19.700  1.00  0.00     0.270 S 
ATOM     63  O   UNL     1      26.182   5.353  20.559  1.00  0.00    -0.199 OA
ATOM     64  O   UNL     1      23.753   5.629  20.139  1.00  0.00    -0.199 OA
BRANCH  62  65
ATOM     65  O   UNL     1      25.443   5.615  18.104  1.00  0.00    -0.285 OA
ATOM     66  H   UNL     1      25.689   6.439  17.625  1.00  0.00     0.234 HD
ENDBRANCH  62  65
ENDBRANCH  56  62
BRANCH  57  67
ATOM     67  S   UNL     1      28.518   9.880  20.954  1.00  0.00     0.270 S 
ATOM     68  O   UNL     1      29.287   8.616  21.039  1.00  0.00    -0.199 OA
ATOM     69  O   UNL     1      28.424  10.471  22.348  1.00  0.00    -0.199 OA
BRANCH  67  70
ATOM     70  O   UNL     1      29.192  11.020  19.952  1.00  0.00    -0.285 OA
ATOM     71  H   UNL     1      28.520  11.744  19.803  1.00  0.00     0.234 HD
ENDBRANCH  67  70
ENDBRANCH  57  67
BRANCH  58  72
ATOM     72  S   UNL     1      23.302  10.361  21.923  1.00  0.00     0.270 S 
ATOM     73  O   UNL     1      21.946  10.220  21.342  1.00  0.00    -0.199 OA
ATOM     74  O   UNL     1      23.358   9.740  23.292  1.00  0.00    -0.199 OA
BRANCH  72  75
ATOM     75  O   UNL     1      23.725  11.988  22.109  1.00  0.00    -0.285 OA
ATOM     76  H   UNL     1      23.418  12.313  22.991  1.00  0.00     0.234 HD
ENDBRANCH  72  75
ENDBRANCH  58  72
ENDBRANCH  51  52
BRANCH  51  77
ATOM     77  C   UNL     1      24.717  11.923  17.016  1.00  0.00    -0.018 C 
ATOM     78  C   UNL     1      23.238  12.171  17.042  1.00  0.00     0.033 C 
ATOM     79  C   UNL     1      25.493  12.820  16.153  1.00  0.00     0.033 C 
ATOM     80  C   UNL     1      24.934  12.612  18.370  1.00  0.00     0.033 C 
ATOM     81  C   UNL     1      22.871  13.659  16.888  1.00  0.00     0.101 C 
ATOM     82  C   UNL     1      24.933  14.254  16.005  1.00  0.00     0.101 C 
ATOM     83  C   UNL     1      24.610  14.079  18.354  1.00  0.00     0.101 C 
ATOM     84  C   UNL     1      23.503  14.273  15.694  1.00  0.00     0.051 C 
ATOM     85  C   UNL     1      23.119  14.332  18.189  1.00  0.00     0.051 C 
ATOM     86  C   UNL     1      25.211  14.942  17.325  1.00  0.00     0.051 C 
BRANCH  81  87
ATOM     87  S   UNL     1      21.100  13.792  16.634  1.00  0.00     0.270 S 
ATOM     88  O   UNL     1      20.896  14.842  15.561  1.00  0.00    -0.199 OA
ATOM     89  O   UNL     1      20.535  12.486  16.236  1.00  0.00    -0.199 OA
BRANCH  87  90
ATOM     90  O   UNL     1      20.446  14.390  18.060  1.00  0.00    -0.285 OA
ATOM     91  H   UNL     1      19.462  14.490  18.018  1.00  0.00     0.234 HD
ENDBRANCH  87  90
ENDBRANCH  81  87
BRANCH  82  92
ATOM     92  S   UNL     1      25.936  15.056  14.770  1.00  0.00     0.270 S 
ATOM     93  O   UNL     1      25.725  16.545  14.813  1.00  0.00    -0.199 OA
ATOM     94  O   UNL     1      27.392  14.794  14.986  1.00  0.00    -0.199 OA
BRANCH  92  95
ATOM     95  O   UNL     1      25.552  14.487  13.227  1.00  0.00    -0.285 OA
ATOM     96  H   UNL     1      25.309  13.544  13.242  1.00  0.00     0.234 HD
ENDBRANCH  92  95
ENDBRANCH  82  92
BRANCH  83  97
ATOM     97  S   UNL     1      25.078  14.752  19.948  1.00  0.00     0.270 S 
ATOM     98  O   UNL     1      26.245  14.002  20.503  1.00  0.00    -0.199 OA
ATOM     99  O   UNL     1      25.279  16.214  19.834  1.00  0.00    -0.199 OA
BRANCH  97 100
ATOM    100  O   UNL     1      23.754  14.459  20.965  1.00  0.00    -0.285 OA
ATOM    101  H   UNL     1      23.653  15.211  21.622  1.00  0.00     0.234 HD
ENDBRANCH  97 100
ENDBRANCH  83  97
ENDBRANCH  51  77
BRANCH  51 102
ATOM    102  C   UNL     1      26.182  10.289  16.003  1.00  0.00    -0.018 C 
ATOM    103  C   UNL     1      27.556  10.685  16.320  1.00  0.00     0.033 C 
ATOM    104  C   UNL     1      26.587   8.805  15.717  1.00  0.00     0.033 C 
ATOM    105  C   UNL     1      25.649  10.451  14.608  1.00  0.00     0.033 C 
ATOM    106  C   UNL     1      28.499  10.696  15.088  1.00  0.00     0.101 C 
ATOM    107  C   UNL     1      27.509   8.674  14.507  1.00  0.00     0.101 C 
ATOM    108  C   UNL     1      26.697  10.625  13.534  1.00  0.00     0.101 C 
ATOM    109  C   UNL     1      28.893   9.273  14.809  1.00  0.00     0.051 C 
ATOM    110  C   UNL     1      27.890  11.412  13.918  1.00  0.00     0.051 C 
ATOM    111  C   UNL     1      27.117   9.162  13.213  1.00  0.00     0.051 C 
BRANCH 106 112
ATOM    112  S   UNL     1      30.018  11.547  15.469  1.00  0.00     0.270 S 
ATOM    113  O   UNL     1      30.062  11.885  16.932  1.00  0.00    -0.199 OA
ATOM    114  O   UNL     1      30.224  12.748  14.609  1.00  0.00    -0.199 OA
BRANCH 112 115
ATOM    115  O   UNL     1      31.264  10.434  15.206  1.00  0.00    -0.285 OA
ATOM    116  H   UNL     1      31.712  10.608  14.339  1.00  0.00     0.234 HD
ENDBRANCH 112 115
ENDBRANCH 106 112
BRANCH 107 117
ATOM    117  S   UNL     1      27.778   6.894  14.372  1.00  0.00     0.270 S 
ATOM    118  O   UNL     1      29.277   6.736  14.262  1.00  0.00    -0.199 OA
ATOM    119  O   UNL     1      27.267   6.212  15.579  1.00  0.00    -0.199 OA
BRANCH 117 120
ATOM    120  O   UNL     1      27.138   6.322  12.934  1.00  0.00    -0.285 OA
ATOM    121  H   UNL     1      27.346   5.339  12.904  1.00  0.00     0.234 HD
ENDBRANCH 117 120
ENDBRANCH 107 117
BRANCH 108 122
ATOM    122  S   UNL     1      25.952  11.219  12.065  1.00  0.00     0.270 S 
ATOM    123  O   UNL     1      26.773  12.331  11.495  1.00  0.00    -0.199 OA
ATOM    124  O   UNL     1      24.595  11.815  12.394  1.00  0.00    -0.199 OA
BRANCH 122 125
ATOM    125  O   UNL     1      25.786   9.977  10.942  1.00  0.00    -0.285 OA
ATOM    126  H   UNL     1      24.988   9.448  11.201  1.00  0.00     0.234 HD
ENDBRANCH 122 125
ENDBRANCH 108 122
ENDBRANCH  51 102
ENDBRANCH  50  51
ENDBRANCH  49  50
ENDBRANCH  48  49
ENDBRANCH  47  48
ENDBRANCH  46  47
ENDBRANCH  45  46
ENDBRANCH  44  45
ENDBRANCH  43  44
ENDBRANCH   1  43
TORSDOF 43
ENDMDL
MODEL 6
REMARK VINA RESULT:    -9.618      3.360      8.120
REMARK INTER + INTRA:         -40.407
REMARK INTER:                 -28.486
REMARK INTRA:                 -11.921
REMARK UNBOUND:                -9.141
REMARK SMILES NC(=O)c1ccccc1OCc1cccc(C(=O)NC[C@@H](NC(=O)c2ncc[nH]2)C(=O)NCCCCCCCCCCCC([C@]23C[C@]4(S(=O)(=O)O)C[C@](S(=O)(=O)O)(C2)C[C@](S(=O)(=O)O)(C3)C4)([C@]23C[C@]4(S(=O)(=O)O)C[C@](S(=O)(=O)O)(C2)C[C@](S(=O)(=O)O)(C3)C4)[C@]23C[C@]4(S(=O)(=O)O)C[C@](S(=O)(=O)O)(C2)C[C@](S(=O)(=O)O)(C3)C4)c1
REMARK SMILES IDX 35 1 34 2 33 3 32 4 30 5 31 6 21 8 20 9 19 10 18 11 17 12
REMARK SMILES IDX 16 14 15 15 111 16 14 17 12 18 13 19 11 20 10 21 9 22 4 23
REMARK SMILES IDX 8 24 5 25 7 26 6 27 2 28 1 29 3 30 22 33 23 34 24 36 25 37
REMARK SMILES IDX 26 38 29 39 27 40 28 41 36 43 37 44 38 45 39 46 40 47 41 48
REMARK SMILES IDX 42 49 43 50 44 51 67 52 80 53 87 54 68 55 75 56 82 57 69 58
REMARK SMILES IDX 81 59 74 60 88 61 76 62 77 63 78 64 79 65 83 67 84 68 85 69
REMARK SMILES IDX 86 70 70 72 71 73 72 74 73 75 45 77 46 78 58 79 65 80 47 81
REMARK SMILES IDX 53 82 60 83 52 84 66 85 59 86 48 87 49 88 50 89 51 90 54 92
REMARK SMILES IDX 55 93 56 94 57 95 61 97 62 98 63 99 64 100 89 102 102 103
REMARK SMILES IDX 109 104 90 105 97 106 104 107 91 108 103 109 96 110 110 111
REMARK SMILES IDX 98 112 99 113 100 114 101 115 105 117 106 118 107 119
REMARK SMILES IDX 108 120 92 122 93 123 94 124 95 125
REMARK H PARENT 32 7 19 13 1 31 1 32 22 35 29 42 79 66 86 71 73 76 51 91 57 96
REMARK H PARENT 64 101 101 116 108 121 95 126
REMARK Flexibility Score: inf
ROOT
ATOM      1  C   UNL     1      22.491   7.524  12.779  1.00  0.00     0.002 C 
ENDROOT
BRANCH   1   2
ATOM      2  C   UNL     1      22.887   6.593  13.867  1.00  0.00     0.021 C 
BRANCH   2   3
ATOM      3  C   UNL     1      24.388   6.772  14.122  1.00  0.00     0.116 C 
BRANCH   3   4
ATOM      4  N   UNL     1      24.843   5.740  15.007  1.00  0.00    -0.354 N 
ATOM      5  C   UNL     1      24.954   4.417  14.502  1.00  0.00     0.244 C 
ATOM      6  O   UNL     1      24.625   4.215  13.301  1.00  0.00    -0.273 OA
ATOM      7  H   UNL     1      25.084   5.941  15.986  1.00  0.00     0.163 HD
BRANCH   5   8
ATOM      8  C   UNL     1      25.445   3.253  15.285  1.00  0.00     0.191 C 
BRANCH   8   9
ATOM      9  C   UNL     1      24.750   1.977  15.058  1.00  0.00     0.151 C 
BRANCH   9  10
ATOM     10  N   UNL     1      23.351   1.884  15.361  1.00  0.00    -0.349 N 
ATOM     11  O   UNL     1      22.720   1.518  13.165  1.00  0.00    -0.269 OA
ATOM     12  C   UNL     1      22.371   1.660  14.380  1.00  0.00     0.251 C 
ATOM     13  H   UNL     1      23.068   1.994  16.369  1.00  0.00     0.163 HD
BRANCH  12  14
ATOM     14  C   UNL     1      20.958   1.578  14.709  1.00  0.00     0.040 A 
ATOM     15  C   UNL     1      19.956   1.838  13.820  1.00  0.00     0.014 A 
ATOM     16  C   UNL     1      20.568   1.241  16.020  1.00  0.00     0.021 A 
ATOM     17  C   UNL     1      18.619   1.772  14.200  1.00  0.00     0.001 A 
ATOM     18  C   UNL     1      19.245   1.182  16.377  1.00  0.00    -0.010 A 
ATOM     19  C   UNL     1      18.230   1.444  15.480  1.00  0.00     0.007 A 
BRANCH  18  20
ATOM     20  C   UNL     1      18.870   0.814  17.778  1.00  0.00     0.265 C 
BRANCH  20  21
ATOM     21  O   UNL     1      18.773   1.887  18.642  1.00  0.00    -0.488 OA
BRANCH  21  22
ATOM     22  C   UNL     1      19.614   2.288  19.640  1.00  0.00     0.132 A 
ATOM     23  C   UNL     1      19.012   2.744  20.810  1.00  0.00     0.081 A 
ATOM     24  C   UNL     1      20.998   2.271  19.561  1.00  0.00     0.047 A 
ATOM     25  C   UNL     1      19.764   3.167  21.858  1.00  0.00     0.018 A 
ATOM     26  C   UNL     1      21.734   2.701  20.626  1.00  0.00     0.004 A 
ATOM     27  C   UNL     1      21.167   3.158  21.796  1.00  0.00     0.001 A 
BRANCH  23  28
ATOM     28  C   UNL     1      17.534   2.759  20.911  1.00  0.00     0.252 C 
ATOM     29  N   UNL     1      16.884   2.003  21.901  1.00  0.00    -0.365 N 
ATOM     30  O   UNL     1      16.890   3.451  20.109  1.00  0.00    -0.269 OA
ATOM     31  H   UNL     1      16.801   2.407  22.872  1.00  0.00     0.159 HD
ATOM     32  H   UNL     1      16.486   1.057  21.697  1.00  0.00     0.159 HD
ENDBRANCH  23  28
ENDBRANCH  21  22
ENDBRANCH  20  21
ENDBRANCH  18  20
ENDBRANCH  12  14
ENDBRANCH   9  10
ENDBRANCH   8   9
BRANCH   8  33
ATOM     33  N   UNL     1      26.868   3.290  15.366  1.00  0.00    -0.336 N 
ATOM     34  C   UNL     1      27.589   2.622  16.386  1.00  0.00     0.287 C 
ATOM     35  H   UNL     1      27.432   3.866  14.669  1.00  0.00     0.164 HD
ATOM     36  O   UNL     1      26.943   1.962  17.235  1.00  0.00    -0.266 OA
BRANCH  34  37
ATOM     37  C   UNL     1      29.030   2.679  16.476  1.00  0.00     0.196 A 
ATOM     38  N   UNL     1      29.884   1.630  16.559  1.00  0.00    -0.232 NA
ATOM     39  N   UNL     1      29.820   3.767  16.511  1.00  0.00    -0.341 N 
ATOM     40  C   UNL     1      31.156   2.053  16.644  1.00  0.00     0.131 A 
ATOM     41  C   UNL     1      31.112   3.424  16.612  1.00  0.00     0.104 A 
ATOM     42  H   UNL     1      29.466   4.747  16.465  1.00  0.00     0.168 HD
ENDBRANCH  34  37
ENDBRANCH   8  33
ENDBRANCH   5   8
ENDBRANCH   3   4
ENDBRANCH   2   3
ENDBRANCH   1   2
BRANCH   1  43
ATOM     43  C   UNL     1      22.995   8.943  12.991  1.00  0.00     0.000 C 
BRANCH  43  44
ATOM     44  C   UNL     1      21.801   9.825  12.898  1.00  0.00     0.000 C 
BRANCH  44  45
ATOM     45  C   UNL     1      21.176  10.354  14.128  1.00  0.00     0.000 C 
BRANCH  45  46
ATOM     46  C   UNL     1      20.376   9.561  15.038  1.00  0.00     0.000 C 
BRANCH  46  47
ATOM     47  C   UNL     1      20.870   8.678  16.080  1.00  0.00     0.000 C 
BRANCH  47  48
ATOM     48  C   UNL     1      21.884   9.063  17.044  1.00  0.00     0.000 C 
BRANCH  48  49
ATOM     49  C   UNL     1      23.347   8.675  16.790  1.00  0.00     0.001 C 
BRANCH  49  50
ATOM     50  C   UNL     1      24.151   9.796  16.588  1.00  0.00     0.009 C 
BRANCH  50  51
ATOM     51  C   UNL     1      25.479  10.348  17.116  1.00  0.00    -0.012 C 
BRANCH  51  52
ATOM     52  C   UNL     1      25.618   9.739  18.491  1.00  0.00    -0.018 C 
ATOM     53  C   UNL     1      25.260   8.270  18.576  1.00  0.00     0.033 C 
ATOM     54  C   UNL     1      27.001   9.620  19.080  1.00  0.00     0.033 C 
ATOM     55  C   UNL     1      24.668  10.248  19.514  1.00  0.00     0.033 C 
ATOM     56  C   UNL     1      25.445   7.637  19.935  1.00  0.00     0.101 C 
ATOM     57  C   UNL     1      27.044   9.243  20.556  1.00  0.00     0.101 C 
ATOM     58  C   UNL     1      24.764   9.561  20.887  1.00  0.00     0.101 C 
ATOM     59  C   UNL     1      26.713   7.735  20.642  1.00  0.00     0.051 C 
ATOM     60  C   UNL     1      24.373   8.147  20.873  1.00  0.00     0.051 C 
ATOM     61  C   UNL     1      26.106   9.882  21.460  1.00  0.00     0.051 C 
BRANCH  56  62
ATOM     62  S   UNL     1      25.052   5.894  19.713  1.00  0.00     0.270 S 
ATOM     63  O   UNL     1      23.612   5.731  20.136  1.00  0.00    -0.199 OA
ATOM     64  O   UNL     1      25.245   5.498  18.283  1.00  0.00    -0.199 OA
BRANCH  62  65
ATOM     65  O   UNL     1      26.005   5.013  20.770  1.00  0.00    -0.285 OA
ATOM     66  H   UNL     1      25.883   5.382  21.673  1.00  0.00     0.234 HD
ENDBRANCH  62  65
ENDBRANCH  56  62
BRANCH  57  67
ATOM     67  S   UNL     1      28.734   9.424  21.121  1.00  0.00     0.270 S 
ATOM     68  O   UNL     1      29.403   8.101  21.148  1.00  0.00    -0.199 OA
ATOM     69  O   UNL     1      28.654   9.941  22.545  1.00  0.00    -0.199 OA
BRANCH  67  70
ATOM     70  O   UNL     1      29.516  10.561  20.199  1.00  0.00    -0.285 OA
ATOM     71  H   UNL     1      30.069  10.086  19.517  1.00  0.00     0.234 HD
ENDBRANCH  67  70
ENDBRANCH  57  67
BRANCH  58  72
ATOM     72  S   UNL     1      23.557  10.358  21.959  1.00  0.00     0.270 S 
ATOM     73  O   UNL     1      22.179  10.129  21.466  1.00  0.00    -0.199 OA
ATOM     74  O   UNL     1      23.693   9.892  23.383  1.00  0.00    -0.199 OA
BRANCH  72  75
ATOM     75  O   UNL     1      23.951  12.002  21.944  1.00  0.00    -0.285 OA
ATOM     76  H   UNL     1      23.692  12.414  22.806  1.00  0.00     0.234 HD
ENDBRANCH  72  75
ENDBRANCH  58  72
ENDBRANCH  51  52
BRANCH  51  77
ATOM     77  C   UNL     1      25.232  11.854  17.119  1.00  0.00    -0.018 C 
ATOM     78  C   UNL     1      25.650  12.532  15.848  1.00  0.00     0.033 C 
ATOM     79  C   UNL     1      25.513  12.596  18.352  1.00  0.00     0.033 C 
ATOM     80  C   UNL     1      23.757  12.224  16.922  1.00  0.00     0.033 C 
ATOM     81  C   UNL     1      25.527  14.066  15.912  1.00  0.00     0.101 C 
ATOM     82  C   UNL     1      25.465  14.137  18.230  1.00  0.00     0.101 C 
ATOM     83  C   UNL     1      23.499  13.704  16.964  1.00  0.00     0.101 C 
ATOM     84  C   UNL     1      26.230  14.638  17.087  1.00  0.00     0.051 C 
ATOM     85  C   UNL     1      24.093  14.420  15.760  1.00  0.00     0.051 C 
ATOM     86  C   UNL     1      23.998  14.493  18.101  1.00  0.00     0.051 C 
BRANCH  81  87
ATOM     87  S   UNL     1      26.327  14.768  14.467  1.00  0.00     0.270 S 
ATOM     88  O   UNL     1      25.950  16.236  14.436  1.00  0.00    -0.199 OA
ATOM     89  O   UNL     1      27.790  14.581  14.544  1.00  0.00    -0.199 OA
BRANCH  87  90
ATOM     90  O   UNL     1      25.635  14.038  13.123  1.00  0.00    -0.285 OA
ATOM     91  H   UNL     1      25.195  13.178  13.339  1.00  0.00     0.234 HD
ENDBRANCH  87  90
ENDBRANCH  81  87
BRANCH  82  92
ATOM     92  S   UNL     1      26.028  14.780  19.794  1.00  0.00     0.270 S 
ATOM     93  O   UNL     1      24.994  14.540  20.858  1.00  0.00    -0.199 OA
ATOM     94  O   UNL     1      27.299  14.125  20.234  1.00  0.00    -0.199 OA
BRANCH  92  95
ATOM     95  O   UNL     1      26.336  16.436  19.682  1.00  0.00    -0.285 OA
ATOM     96  H   UNL     1      25.743  16.871  19.044  1.00  0.00     0.234 HD
ENDBRANCH  92  95
ENDBRANCH  82  92
BRANCH  83  97
ATOM     97  S   UNL     1      21.725  13.946  16.891  1.00  0.00     0.270 S 
ATOM     98  O   UNL     1      21.025  12.626  16.866  1.00  0.00    -0.199 OA
ATOM     99  O   UNL     1      21.298  14.853  17.979  1.00  0.00    -0.199 OA
BRANCH  97 100
ATOM    100  O   UNL     1      21.436  14.703  15.402  1.00  0.00    -0.285 OA
ATOM    101  H   UNL     1      22.076  15.464  15.272  1.00  0.00     0.234 HD
ENDBRANCH  97 100
ENDBRANCH  83  97
ENDBRANCH  51  77
BRANCH  51 102
ATOM    102  C   UNL     1      26.589  10.120  16.121  1.00  0.00    -0.018 C 
ATOM    103  C   UNL     1      27.941  10.612  16.393  1.00  0.00     0.033 C 
ATOM    104  C   UNL     1      27.061   8.632  16.019  1.00  0.00     0.033 C 
ATOM    105  C   UNL     1      26.062  10.088  14.714  1.00  0.00     0.033 C 
ATOM    106  C   UNL     1      28.894  10.516  15.173  1.00  0.00     0.101 C 
ATOM    107  C   UNL     1      27.999   8.396  14.837  1.00  0.00     0.101 C 
ATOM    108  C   UNL     1      27.112  10.177  13.632  1.00  0.00     0.101 C 
ATOM    109  C   UNL     1      29.353   9.089  15.070  1.00  0.00     0.051 C 
ATOM    110  C   UNL     1      28.266  11.057  13.922  1.00  0.00     0.051 C 
ATOM    111  C   UNL     1      27.599   8.707  13.492  1.00  0.00     0.051 C 
BRANCH 106 112
ATOM    112  S   UNL     1      30.371  11.473  15.454  1.00  0.00     0.270 S 
ATOM    113  O   UNL     1      31.554  10.782  14.840  1.00  0.00    -0.199 OA
ATOM    114  O   UNL     1      30.583  11.773  16.900  1.00  0.00    -0.199 OA
BRANCH 112 115
ATOM    115  O   UNL     1      30.172  12.917  14.594  1.00  0.00    -0.285 OA
ATOM    116  H   UNL     1      29.476  13.483  15.016  1.00  0.00     0.234 HD
ENDBRANCH 112 115
ENDBRANCH 106 112
BRANCH 107 117
ATOM    117  S   UNL     1      28.346   6.626  14.920  1.00  0.00     0.270 S 
ATOM    118  O   UNL     1      27.667   6.158  16.187  1.00  0.00    -0.199 OA
ATOM    119  O   UNL     1      27.779   5.943  13.739  1.00  0.00    -0.199 OA
BRANCH 117 120
ATOM    120  O   UNL     1      29.985   6.370  15.144  1.00  0.00    -0.285 OA
ATOM    121  H   UNL     1      30.458   7.039  14.562  1.00  0.00     0.234 HD
ENDBRANCH 117 120
ENDBRANCH 107 117
BRANCH 108 122
ATOM    122  S   UNL     1      26.355  10.556  12.098  1.00  0.00     0.270 S 
ATOM    123  O   UNL     1      27.286  11.375  11.263  1.00  0.00    -0.199 OA
ATOM    124  O   UNL     1      25.128  11.416  12.341  1.00  0.00    -0.199 OA
BRANCH 122 125
ATOM    125  O   UNL     1      25.926   9.146  11.287  1.00  0.00    -0.285 OA
ATOM    126  H   UNL     1      26.742   8.799  10.843  1.00  0.00     0.234 HD
ENDBRANCH 122 125
ENDBRANCH 108 122
ENDBRANCH  51 102
ENDBRANCH  50  51
ENDBRANCH  49  50
ENDBRANCH  48  49
ENDBRANCH  47  48
ENDBRANCH  46  47
ENDBRANCH  45  46
ENDBRANCH  44  45
ENDBRANCH  43  44
ENDBRANCH   1  43
TORSDOF 43
ENDMDL
MODEL 7
REMARK VINA RESULT:    -9.585      1.496      3.739
REMARK INTER + INTRA:         -40.297
REMARK INTER:                 -29.116
REMARK INTRA:                 -11.182
REMARK UNBOUND:                -9.141
REMARK SMILES NC(=O)c1ccccc1OCc1cccc(C(=O)NC[C@@H](NC(=O)c2ncc[nH]2)C(=O)NCCCCCCCCCCCC([C@]23C[C@]4(S(=O)(=O)O)C[C@](S(=O)(=O)O)(C2)C[C@](S(=O)(=O)O)(C3)C4)([C@]23C[C@]4(S(=O)(=O)O)C[C@](S(=O)(=O)O)(C2)C[C@](S(=O)(=O)O)(C3)C4)[C@]23C[C@]4(S(=O)(=O)O)C[C@](S(=O)(=O)O)(C2)C[C@](S(=O)(=O)O)(C3)C4)c1
REMARK SMILES IDX 35 1 34 2 33 3 32 4 30 5 31 6 21 8 20 9 19 10 18 11 17 12
REMARK SMILES IDX 16 14 15 15 111 16 14 17 12 18 13 19 11 20 10 21 9 22 4 23
REMARK SMILES IDX 8 24 5 25 7 26 6 27 2 28 1 29 3 30 22 33 23 34 24 36 25 37
REMARK SMILES IDX 26 38 29 39 27 40 28 41 36 43 37 44 38 45 39 46 40 47 41 48
REMARK SMILES IDX 42 49 43 50 44 51 67 52 80 53 87 54 68 55 75 56 82 57 69 58
REMARK SMILES IDX 81 59 74 60 88 61 76 62 77 63 78 64 79 65 83 67 84 68 85 69
REMARK SMILES IDX 86 70 70 72 71 73 72 74 73 75 45 77 46 78 58 79 65 80 47 81
REMARK SMILES IDX 53 82 60 83 52 84 66 85 59 86 48 87 49 88 50 89 51 90 54 92
REMARK SMILES IDX 55 93 56 94 57 95 61 97 62 98 63 99 64 100 89 102 102 103
REMARK SMILES IDX 109 104 90 105 97 106 104 107 91 108 103 109 96 110 110 111
REMARK SMILES IDX 98 112 99 113 100 114 101 115 105 117 106 118 107 119
REMARK SMILES IDX 108 120 92 122 93 123 94 124 95 125
REMARK H PARENT 32 7 19 13 1 31 1 32 22 35 29 42 79 66 86 71 73 76 51 91 57 96
REMARK H PARENT 64 101 101 116 108 121 95 126
REMARK Flexibility Score: inf
ROOT
ATOM      1  C   UNL     1      20.660   1.293  14.238  1.00  0.00     0.002 C 
ENDROOT
BRANCH   1   2
ATOM      2  C   UNL     1      19.282   1.837  14.346  1.00  0.00     0.021 C 
BRANCH   2   3
ATOM      3  C   UNL     1      18.423   0.808  15.091  1.00  0.00     0.116 C 
BRANCH   3   4
ATOM      4  N   UNL     1      18.891  -0.511  14.779  1.00  0.00    -0.354 N 
ATOM      5  C   UNL     1      18.972  -1.465  15.830  1.00  0.00     0.244 C 
ATOM      6  O   UNL     1      18.646  -1.093  16.989  1.00  0.00    -0.273 OA
ATOM      7  H   UNL     1      19.166  -0.770  13.823  1.00  0.00     0.163 HD
BRANCH   5   8
ATOM      8  C   UNL     1      19.400  -2.878  15.655  1.00  0.00     0.191 C 
BRANCH   8   9
ATOM      9  C   UNL     1      20.699  -3.239  16.241  1.00  0.00     0.151 C 
BRANCH   9  10
ATOM     10  N   UNL     1      21.438  -2.243  16.961  1.00  0.00    -0.349 N 
ATOM     11  O   UNL     1      22.630  -1.536  15.108  1.00  0.00    -0.269 OA
ATOM     12  C   UNL     1      22.400  -1.418  16.353  1.00  0.00     0.251 C 
ATOM     13  H   UNL     1      21.239  -2.144  17.990  1.00  0.00     0.163 HD
BRANCH  12  14
ATOM     14  C   UNL     1      23.144  -0.421  17.104  1.00  0.00     0.040 A 
ATOM     15  C   UNL     1      24.504  -0.412  17.211  1.00  0.00     0.014 A 
ATOM     16  C   UNL     1      22.448   0.589  17.796  1.00  0.00     0.021 A 
ATOM     17  C   UNL     1      25.162   0.552  17.969  1.00  0.00     0.001 A 
ATOM     18  C   UNL     1      23.114   1.531  18.539  1.00  0.00    -0.010 A 
ATOM     19  C   UNL     1      24.489   1.543  18.648  1.00  0.00     0.007 A 
BRANCH  18  20
ATOM     20  C   UNL     1      22.341   2.594  19.256  1.00  0.00     0.265 C 
BRANCH  20  21
ATOM     21  O   UNL     1      21.278   2.121  19.998  1.00  0.00    -0.488 OA
BRANCH  21  22
ATOM     22  C   UNL     1      19.934   2.249  19.788  1.00  0.00     0.132 A 
ATOM     23  C   UNL     1      19.191   2.773  20.842  1.00  0.00     0.081 A 
ATOM     24  C   UNL     1      19.281   1.895  18.617  1.00  0.00     0.047 A 
ATOM     25  C   UNL     1      17.847   2.936  20.730  1.00  0.00     0.018 A 
ATOM     26  C   UNL     1      17.932   2.067  18.527  1.00  0.00     0.004 A 
ATOM     27  C   UNL     1      17.169   2.582  19.552  1.00  0.00     0.001 A 
BRANCH  23  28
ATOM     28  C   UNL     1      19.876   3.163  22.095  1.00  0.00     0.252 C 
ATOM     29  N   UNL     1      20.709   2.248  22.761  1.00  0.00    -0.365 N 
ATOM     30  O   UNL     1      19.701   4.307  22.539  1.00  0.00    -0.269 OA
ATOM     31  H   UNL     1      21.705   2.138  22.432  1.00  0.00     0.159 HD
ATOM     32  H   UNL     1      20.364   1.677  23.568  1.00  0.00     0.159 HD
ENDBRANCH  23  28
ENDBRANCH  21  22
ENDBRANCH  20  21
ENDBRANCH  18  20
ENDBRANCH  12  14
ENDBRANCH   9  10
ENDBRANCH   8   9
BRANCH   8  33
ATOM     33  N   UNL     1      18.279  -3.745  15.804  1.00  0.00    -0.336 N 
ATOM     34  C   UNL     1      17.166  -3.706  14.930  1.00  0.00     0.287 C 
ATOM     35  H   UNL     1      18.234  -4.432  16.618  1.00  0.00     0.164 HD
ATOM     36  O   UNL     1      17.184  -2.883  13.983  1.00  0.00    -0.266 OA
BRANCH  34  37
ATOM     37  C   UNL     1      16.022  -4.573  15.098  1.00  0.00     0.196 A 
ATOM     38  N   UNL     1      14.726  -4.198  15.225  1.00  0.00    -0.232 NA
ATOM     39  N   UNL     1      16.000  -5.916  15.177  1.00  0.00    -0.341 N 
ATOM     40  C   UNL     1      13.931  -5.270  15.379  1.00  0.00     0.131 A 
ATOM     41  C   UNL     1      14.750  -6.369  15.346  1.00  0.00     0.104 A 
ATOM     42  H   UNL     1      16.848  -6.518  15.114  1.00  0.00     0.168 HD
ENDBRANCH  34  37
ENDBRANCH   8  33
ENDBRANCH   5   8
ENDBRANCH   3   4
ENDBRANCH   2   3
ENDBRANCH   1   2
BRANCH   1  43
ATOM     43  C   UNL     1      21.731   2.372  14.239  1.00  0.00     0.000 C 
BRANCH  43  44
ATOM     44  C   UNL     1      23.033   1.664  14.113  1.00  0.00     0.000 C 
BRANCH  44  45
ATOM     45  C   UNL     1      24.253   2.250  14.707  1.00  0.00     0.000 C 
BRANCH  45  46
ATOM     46  C   UNL     1      24.272   3.474  15.482  1.00  0.00     0.000 C 
BRANCH  46  47
ATOM     47  C   UNL     1      25.438   4.101  16.080  1.00  0.00     0.000 C 
BRANCH  47  48
ATOM     48  C   UNL     1      25.541   4.421  17.492  1.00  0.00     0.000 C 
BRANCH  48  49
ATOM     49  C   UNL     1      25.552   5.891  17.931  1.00  0.00     0.001 C 
BRANCH  49  50
ATOM     50  C   UNL     1      26.393   6.662  17.130  1.00  0.00     0.009 C 
BRANCH  50  51
ATOM     51  C   UNL     1      26.653   8.149  16.862  1.00  0.00    -0.012 C 
BRANCH  51  52
ATOM     52  C   UNL     1      26.150   8.369  15.456  1.00  0.00    -0.018 C 
ATOM     53  C   UNL     1      24.662   8.633  15.346  1.00  0.00     0.033 C 
ATOM     54  C   UNL     1      26.605   9.607  14.724  1.00  0.00     0.033 C 
ATOM     55  C   UNL     1      26.223   7.187  14.558  1.00  0.00     0.033 C 
ATOM     56  C   UNL     1      24.157   8.907  13.949  1.00  0.00     0.101 C 
ATOM     57  C   UNL     1      26.274   9.636  13.237  1.00  0.00     0.101 C 
ATOM     58  C   UNL     1      25.632   7.402  13.154  1.00  0.00     0.101 C 
ATOM     59  C   UNL     1      24.762   9.939  13.121  1.00  0.00     0.051 C 
ATOM     60  C   UNL     1      24.181   7.623  13.148  1.00  0.00     0.051 C 
ATOM     61  C   UNL     1      26.471   8.425  12.462  1.00  0.00     0.051 C 
BRANCH  56  62
ATOM     62  S   UNL     1      22.406   9.283  14.136  1.00  0.00     0.270 S 
ATOM     63  O   UNL     1      22.331  10.523  14.992  1.00  0.00    -0.199 OA
ATOM     64  O   UNL     1      21.780   9.511  12.795  1.00  0.00    -0.199 OA
BRANCH  62  65
ATOM     65  O   UNL     1      21.696   8.025  14.982  1.00  0.00    -0.285 OA
ATOM     66  H   UNL     1      21.589   8.308  15.918  1.00  0.00     0.234 HD
ENDBRANCH  62  65
ENDBRANCH  56  62
BRANCH  57  67
ATOM     67  S   UNL     1      27.128  11.032  12.510  1.00  0.00     0.270 S 
ATOM     68  O   UNL     1      28.587  10.907  12.736  1.00  0.00    -0.199 OA
ATOM     69  O   UNL     1      26.639  12.263  13.250  1.00  0.00    -0.199 OA
BRANCH  67  70
ATOM     70  O   UNL     1      26.700  11.183  10.913  1.00  0.00    -0.285 OA
ATOM     71  H   UNL     1      27.520  11.065  10.355  1.00  0.00     0.234 HD
ENDBRANCH  67  70
ENDBRANCH  57  67
BRANCH  58  72
ATOM     72  S   UNL     1      25.863   5.865  12.247  1.00  0.00     0.270 S 
ATOM     73  O   UNL     1      27.066   5.144  12.724  1.00  0.00    -0.199 OA
ATOM     74  O   UNL     1      24.647   4.982  12.340  1.00  0.00    -0.199 OA
BRANCH  72  75
ATOM     75  O   UNL     1      26.017   6.312  10.624  1.00  0.00    -0.285 OA
ATOM     76  H   UNL     1      25.807   5.539  10.044  1.00  0.00     0.234 HD
ENDBRANCH  72  75
ENDBRANCH  58  72
ENDBRANCH  51  52
BRANCH  51  77
ATOM     77  C   UNL     1      28.169   8.250  17.010  1.00  0.00    -0.018 C 
ATOM     78  C   UNL     1      28.688   7.655  18.285  1.00  0.00     0.033 C 
ATOM     79  C   UNL     1      28.822   9.491  16.580  1.00  0.00     0.033 C 
ATOM     80  C   UNL     1      28.929   7.240  16.140  1.00  0.00     0.033 C 
ATOM     81  C   UNL     1      30.197   7.885  18.490  1.00  0.00     0.101 C 
ATOM     82  C   UNL     1      30.315   9.627  16.961  1.00  0.00     0.101 C 
ATOM     83  C   UNL     1      30.423   7.361  16.248  1.00  0.00     0.101 C 
ATOM     84  C   UNL     1      30.569   9.317  18.368  1.00  0.00     0.051 C 
ATOM     85  C   UNL     1      30.931   6.933  17.617  1.00  0.00     0.051 C 
ATOM     86  C   UNL     1      31.059   8.672  16.051  1.00  0.00     0.051 C 
BRANCH  81  87
ATOM     87  S   UNL     1      30.632   7.402  20.162  1.00  0.00     0.270 S 
ATOM     88  O   UNL     1      31.431   8.548  20.748  1.00  0.00    -0.199 OA
ATOM     89  O   UNL     1      29.415   7.122  20.952  1.00  0.00    -0.199 OA
BRANCH  87  90
ATOM     90  O   UNL     1      31.659   6.079  20.036  1.00  0.00    -0.285 OA
ATOM     91  H   UNL     1      32.464   6.271  19.492  1.00  0.00     0.234 HD
ENDBRANCH  87  90
ENDBRANCH  81  87
BRANCH  82  92
ATOM     92  S   UNL     1      30.798  11.279  16.503  1.00  0.00     0.270 S 
ATOM     93  O   UNL     1      30.945  12.138  17.728  1.00  0.00    -0.199 OA
ATOM     94  O   UNL     1      32.105  11.291  15.776  1.00  0.00    -0.199 OA
BRANCH  92  95
ATOM     95  O   UNL     1      29.652  11.973  15.474  1.00  0.00    -0.285 OA
ATOM     96  H   UNL     1      29.078  12.602  15.947  1.00  0.00     0.234 HD
ENDBRANCH  92  95
ENDBRANCH  82  92
BRANCH  83  97
ATOM     97  S   UNL     1      31.144   6.238  15.052  1.00  0.00     0.270 S 
ATOM     98  O   UNL     1      32.329   6.872  14.399  1.00  0.00    -0.199 OA
ATOM     99  O   UNL     1      31.415   4.932  15.692  1.00  0.00    -0.199 OA
BRANCH  97 100
ATOM    100  O   UNL     1      29.958   6.028  13.860  1.00  0.00    -0.285 OA
ATOM    101  H   UNL     1      29.570   6.915  13.600  1.00  0.00     0.234 HD
ENDBRANCH  97 100
ENDBRANCH  83  97
ENDBRANCH  51  77
BRANCH  51 102
ATOM    102  C   UNL     1      26.080   9.001  17.966  1.00  0.00    -0.018 C 
ATOM    103  C   UNL     1      26.548   8.842  19.345  1.00  0.00     0.033 C 
ATOM    104  C   UNL     1      26.514  10.503  17.904  1.00  0.00     0.033 C 
ATOM    105  C   UNL     1      24.649   9.366  17.688  1.00  0.00     0.033 C 
ATOM    106  C   UNL     1      25.690   9.610  20.384  1.00  0.00     0.101 C 
ATOM    107  C   UNL     1      25.727  11.380  18.876  1.00  0.00     0.101 C 
ATOM    108  C   UNL     1      23.894   9.947  18.860  1.00  0.00     0.101 C 
ATOM    109  C   UNL     1      26.103  11.054  20.332  1.00  0.00     0.051 C 
ATOM    110  C   UNL     1      24.221   9.379  20.186  1.00  0.00     0.051 C 
ATOM    111  C   UNL     1      24.292  11.450  18.823  1.00  0.00     0.051 C 
BRANCH 106 112
ATOM    112  S   UNL     1      26.071   9.064  22.038  1.00  0.00     0.270 S 
ATOM    113  O   UNL     1      25.571   7.663  22.242  1.00  0.00    -0.199 OA
ATOM    114  O   UNL     1      25.555  10.002  23.076  1.00  0.00    -0.199 OA
BRANCH 112 115
ATOM    115  O   UNL     1      27.758   8.979  22.132  1.00  0.00    -0.285 OA
ATOM    116  H   UNL     1      28.075   8.062  21.929  1.00  0.00     0.234 HD
ENDBRANCH 112 115
ENDBRANCH 106 112
BRANCH 107 117
ATOM    117  S   UNL     1      26.377  13.036  18.573  1.00  0.00     0.270 S 
ATOM    118  O   UNL     1      25.428  13.645  17.565  1.00  0.00    -0.199 OA
ATOM    119  O   UNL     1      26.379  13.817  19.828  1.00  0.00    -0.199 OA
BRANCH 117 120
ATOM    120  O   UNL     1      27.868  12.941  17.817  1.00  0.00    -0.285 OA
ATOM    121  H   UNL     1      28.071  13.864  17.476  1.00  0.00     0.234 HD
ENDBRANCH 117 120
ENDBRANCH 107 117
BRANCH 108 122
ATOM    122  S   UNL     1      22.174   9.922  18.530  1.00  0.00     0.270 S 
ATOM    123  O   UNL     1      21.413   9.848  19.815  1.00  0.00    -0.199 OA
ATOM    124  O   UNL     1      21.828   8.664  17.755  1.00  0.00    -0.199 OA
BRANCH 122 125
ATOM    125  O   UNL     1      21.719  11.287  17.658  1.00  0.00    -0.285 OA
ATOM    126  H   UNL     1      22.184  12.065  18.060  1.00  0.00     0.234 HD
ENDBRANCH 122 125
ENDBRANCH 108 122
ENDBRANCH  51 102
ENDBRANCH  50  51
ENDBRANCH  49  50
ENDBRANCH  48  49
ENDBRANCH  47  48
ENDBRANCH  46  47
ENDBRANCH  45  46
ENDBRANCH  44  45
ENDBRANCH  43  44
ENDBRANCH   1  43
TORSDOF 43
ENDMDL
MODEL 8
REMARK VINA RESULT:    -9.568      3.861      8.105
REMARK INTER + INTRA:         -40.243
REMARK INTER:                 -28.643
REMARK INTRA:                 -11.600
REMARK UNBOUND:                -9.141
REMARK SMILES NC(=O)c1ccccc1OCc1cccc(C(=O)NC[C@@H](NC(=O)c2ncc[nH]2)C(=O)NCCCCCCCCCCCC([C@]23C[C@]4(S(=O)(=O)O)C[C@](S(=O)(=O)O)(C2)C[C@](S(=O)(=O)O)(C3)C4)([C@]23C[C@]4(S(=O)(=O)O)C[C@](S(=O)(=O)O)(C2)C[C@](S(=O)(=O)O)(C3)C4)[C@]23C[C@]4(S(=O)(=O)O)C[C@](S(=O)(=O)O)(C2)C[C@](S(=O)(=O)O)(C3)C4)c1
REMARK SMILES IDX 35 1 34 2 33 3 32 4 30 5 31 6 21 8 20 9 19 10 18 11 17 12
REMARK SMILES IDX 16 14 15 15 111 16 14 17 12 18 13 19 11 20 10 21 9 22 4 23
REMARK SMILES IDX 8 24 5 25 7 26 6 27 2 28 1 29 3 30 22 33 23 34 24 36 25 37
REMARK SMILES IDX 26 38 29 39 27 40 28 41 36 43 37 44 38 45 39 46 40 47 41 48
REMARK SMILES IDX 42 49 43 50 44 51 67 52 80 53 87 54 68 55 75 56 82 57 69 58
REMARK SMILES IDX 81 59 74 60 88 61 76 62 77 63 78 64 79 65 83 67 84 68 85 69
REMARK SMILES IDX 86 70 70 72 71 73 72 74 73 75 45 77 46 78 58 79 65 80 47 81
REMARK SMILES IDX 53 82 60 83 52 84 66 85 59 86 48 87 49 88 50 89 51 90 54 92
REMARK SMILES IDX 55 93 56 94 57 95 61 97 62 98 63 99 64 100 89 102 102 103
REMARK SMILES IDX 109 104 90 105 97 106 104 107 91 108 103 109 96 110 110 111
REMARK SMILES IDX 98 112 99 113 100 114 101 115 105 117 106 118 107 119
REMARK SMILES IDX 108 120 92 122 93 123 94 124 95 125
REMARK H PARENT 32 7 19 13 1 31 1 32 22 35 29 42 79 66 86 71 73 76 51 91 57 96
REMARK H PARENT 64 101 101 116 108 121 95 126
REMARK Flexibility Score: inf
ROOT
ATOM      1  C   UNL     1      24.591   8.093  20.654  1.00  0.00     0.002 C 
ENDROOT
BRANCH   1   2
ATOM      2  C   UNL     1      25.508   6.941  20.856  1.00  0.00     0.021 C 
BRANCH   2   3
ATOM      3  C   UNL     1      24.853   5.700  20.237  1.00  0.00     0.116 C 
BRANCH   3   4
ATOM      4  N   UNL     1      25.357   5.515  18.907  1.00  0.00    -0.354 N 
ATOM      5  C   UNL     1      25.081   4.288  18.245  1.00  0.00     0.244 C 
ATOM      6  O   UNL     1      24.423   3.415  18.873  1.00  0.00    -0.273 OA
ATOM      7  H   UNL     1      25.906   6.244  18.436  1.00  0.00     0.163 HD
BRANCH   5   8
ATOM      8  C   UNL     1      25.502   3.966  16.856  1.00  0.00     0.191 C 
BRANCH   8   9
ATOM      9  C   UNL     1      24.429   3.587  15.924  1.00  0.00     0.151 C 
BRANCH   9  10
ATOM     10  N   UNL     1      23.434   2.649  16.354  1.00  0.00    -0.349 N 
ATOM     11  O   UNL     1      24.768   0.795  15.980  1.00  0.00    -0.269 OA
ATOM     12  C   UNL     1      23.646   1.260  16.359  1.00  0.00     0.251 C 
ATOM     13  H   UNL     1      22.510   3.038  16.673  1.00  0.00     0.163 HD
BRANCH  12  14
ATOM     14  C   UNL     1      22.619   0.326  16.790  1.00  0.00     0.040 A 
ATOM     15  C   UNL     1      22.702  -1.025  16.618  1.00  0.00     0.014 A 
ATOM     16  C   UNL     1      21.446   0.816  17.396  1.00  0.00     0.021 A 
ATOM     17  C   UNL     1      21.673  -1.868  17.026  1.00  0.00     0.001 A 
ATOM     18  C   UNL     1      20.441  -0.031  17.790  1.00  0.00    -0.010 A 
ATOM     19  C   UNL     1      20.523  -1.397  17.619  1.00  0.00     0.007 A 
BRANCH  18  20
ATOM     20  C   UNL     1      19.212   0.526  18.437  1.00  0.00     0.265 C 
BRANCH  20  21
ATOM     21  O   UNL     1      19.336   1.832  18.866  1.00  0.00    -0.488 OA
BRANCH  21  22
ATOM     22  C   UNL     1      19.783   2.326  20.059  1.00  0.00     0.132 A 
ATOM     23  C   UNL     1      18.807   2.730  20.965  1.00  0.00     0.081 A 
ATOM     24  C   UNL     1      21.119   2.447  20.412  1.00  0.00     0.047 A 
ATOM     25  C   UNL     1      19.153   3.237  22.176  1.00  0.00     0.018 A 
ATOM     26  C   UNL     1      21.442   2.959  21.634  1.00  0.00     0.004 A 
ATOM     27  C   UNL     1      20.500   3.368  22.551  1.00  0.00     0.001 A 
BRANCH  23  28
ATOM     28  C   UNL     1      17.377   2.599  20.604  1.00  0.00     0.252 C 
ATOM     29  N   UNL     1      16.918   3.045  19.353  1.00  0.00    -0.365 N 
ATOM     30  O   UNL     1      16.600   2.089  21.425  1.00  0.00    -0.269 OA
ATOM     31  H   UNL     1      17.029   2.410  18.518  1.00  0.00     0.159 HD
ATOM     32  H   UNL     1      16.475   3.986  19.233  1.00  0.00     0.159 HD
ENDBRANCH  23  28
ENDBRANCH  21  22
ENDBRANCH  20  21
ENDBRANCH  18  20
ENDBRANCH  12  14
ENDBRANCH   9  10
ENDBRANCH   8   9
BRANCH   8  33
ATOM     33  N   UNL     1      26.529   4.863  16.441  1.00  0.00    -0.336 N 
ATOM     34  C   UNL     1      27.676   4.430  15.732  1.00  0.00     0.287 C 
ATOM     35  H   UNL     1      26.476   5.897  16.695  1.00  0.00     0.164 HD
ATOM     36  O   UNL     1      27.774   3.212  15.449  1.00  0.00    -0.266 OA
BRANCH  34  37
ATOM     37  C   UNL     1      28.725   5.340  15.332  1.00  0.00     0.196 A 
ATOM     38  N   UNL     1      29.841   5.656  16.032  1.00  0.00    -0.232 NA
ATOM     39  N   UNL     1      28.810   6.069  14.204  1.00  0.00    -0.341 N 
ATOM     40  C   UNL     1      30.589   6.549  15.362  1.00  0.00     0.131 A 
ATOM     41  C   UNL     1      29.926   6.810  14.191  1.00  0.00     0.104 A 
ATOM     42  H   UNL     1      28.096   6.053  13.445  1.00  0.00     0.168 HD
ENDBRANCH  34  37
ENDBRANCH   8  33
ENDBRANCH   5   8
ENDBRANCH   3   4
ENDBRANCH   2   3
ENDBRANCH   1   2
BRANCH   1  43
ATOM     43  C   UNL     1      23.181   7.677  20.269  1.00  0.00     0.000 C 
BRANCH  43  44
ATOM     44  C   UNL     1      22.443   8.935  19.975  1.00  0.00     0.000 C 
BRANCH  44  45
ATOM     45  C   UNL     1      21.373   8.941  18.956  1.00  0.00     0.000 C 
BRANCH  45  46
ATOM     46  C   UNL     1      21.611   8.964  17.527  1.00  0.00     0.000 C 
BRANCH  46  47
ATOM     47  C   UNL     1      20.645   9.293  16.494  1.00  0.00     0.000 C 
BRANCH  47  48
ATOM     48  C   UNL     1      20.364   8.437  15.356  1.00  0.00     0.000 C 
BRANCH  48  49
ATOM     49  C   UNL     1      21.361   8.384  14.192  1.00  0.00     0.001 C 
BRANCH  49  50
ATOM     50  C   UNL     1      21.446   9.606  13.527  1.00  0.00     0.009 C 
BRANCH  50  51
ATOM     51  C   UNL     1      22.539  10.496  12.925  1.00  0.00    -0.012 C 
BRANCH  51  52
ATOM     52  C   UNL     1      23.829   9.796  13.278  1.00  0.00    -0.018 C 
ATOM     53  C   UNL     1      25.087  10.555  12.910  1.00  0.00     0.033 C 
ATOM     54  C   UNL     1      24.157   9.605  14.738  1.00  0.00     0.033 C 
ATOM     55  C   UNL     1      24.106   8.546  12.523  1.00  0.00     0.033 C 
ATOM     56  C   UNL     1      26.383   9.888  13.307  1.00  0.00     0.101 C 
ATOM     57  C   UNL     1      25.329   8.673  15.019  1.00  0.00     0.101 C 
ATOM     58  C   UNL     1      25.461   7.888  12.833  1.00  0.00     0.101 C 
ATOM     59  C   UNL     1      26.616   9.457  14.676  1.00  0.00     0.051 C 
ATOM     60  C   UNL     1      26.619   8.687  12.416  1.00  0.00     0.051 C 
ATOM     61  C   UNL     1      25.431   7.441  14.258  1.00  0.00     0.051 C 
BRANCH  56  62
ATOM     62  S   UNL     1      27.681  11.047  12.846  1.00  0.00     0.270 S 
ATOM     63  O   UNL     1      27.411  11.434  11.413  1.00  0.00    -0.199 OA
ATOM     64  O   UNL     1      27.650  12.243  13.746  1.00  0.00    -0.199 OA
BRANCH  62  65
ATOM     65  O   UNL     1      29.142  10.230  12.896  1.00  0.00    -0.285 OA
ATOM     66  H   UNL     1      29.008   9.393  13.396  1.00  0.00     0.234 HD
ENDBRANCH  62  65
ENDBRANCH  56  62
BRANCH  57  67
ATOM     67  S   UNL     1      25.378   8.365  16.783  1.00  0.00     0.270 S 
ATOM     68  O   UNL     1      26.683   7.770  17.157  1.00  0.00    -0.199 OA
ATOM     69  O   UNL     1      24.294   7.342  17.067  1.00  0.00    -0.199 OA
BRANCH  67  70
ATOM     70  O   UNL     1      25.006   9.758  17.606  1.00  0.00    -0.285 OA
ATOM     71  H   UNL     1      24.288  10.237  17.104  1.00  0.00     0.234 HD
ENDBRANCH  67  70
ENDBRANCH  57  67
BRANCH  58  72
ATOM     72  S   UNL     1      25.557   6.391  11.839  1.00  0.00     0.270 S 
ATOM     73  O   UNL     1      26.545   5.443  12.404  1.00  0.00    -0.199 OA
ATOM     74  O   UNL     1      24.211   5.733  11.703  1.00  0.00    -0.199 OA
BRANCH  72  75
ATOM     75  O   UNL     1      26.008   6.900  10.291  1.00  0.00    -0.285 OA
ATOM     76  H   UNL     1      26.820   6.413  10.003  1.00  0.00     0.234 HD
ENDBRANCH  72  75
ENDBRANCH  58  72
ENDBRANCH  51  52
BRANCH  51  77
ATOM     77  C   UNL     1      22.323  11.820  13.654  1.00  0.00    -0.018 C 
ATOM     78  C   UNL     1      20.913  12.024  14.121  1.00  0.00     0.033 C 
ATOM     79  C   UNL     1      22.992  13.014  13.126  1.00  0.00     0.033 C 
ATOM     80  C   UNL     1      22.879  11.821  15.083  1.00  0.00     0.033 C 
ATOM     81  C   UNL     1      20.673  13.419  14.730  1.00  0.00     0.101 C 
ATOM     82  C   UNL     1      22.560  14.357  13.759  1.00  0.00     0.101 C 
ATOM     83  C   UNL     1      22.708  13.134  15.792  1.00  0.00     0.101 C 
ATOM     84  C   UNL     1      21.106  14.510  13.822  1.00  0.00     0.051 C 
ATOM     85  C   UNL     1      21.247  13.429  16.100  1.00  0.00     0.051 C 
ATOM     86  C   UNL     1      23.169  14.372  15.145  1.00  0.00     0.051 C 
BRANCH  81  87
ATOM     87  S   UNL     1      18.910  13.646  14.970  1.00  0.00     0.270 S 
ATOM     88  O   UNL     1      18.432  14.539  13.843  1.00  0.00    -0.199 OA
ATOM     89  O   UNL     1      18.215  12.343  14.968  1.00  0.00    -0.199 OA
BRANCH  87  90
ATOM     90  O   UNL     1      18.719  14.496  16.406  1.00  0.00    -0.285 OA
ATOM     91  H   UNL     1      17.933  14.195  16.927  1.00  0.00     0.234 HD
ENDBRANCH  87  90
ENDBRANCH  81  87
BRANCH  82  92
ATOM     92  S   UNL     1      23.365  15.636  12.815  1.00  0.00     0.270 S 
ATOM     93  O   UNL     1      22.349  16.607  12.280  1.00  0.00    -0.199 OA
ATOM     94  O   UNL     1      24.341  16.405  13.647  1.00  0.00    -0.199 OA
BRANCH  92  95
ATOM     95  O   UNL     1      24.229  14.971  11.525  1.00  0.00    -0.285 OA
ATOM     96  H   UNL     1      23.746  14.234  11.110  1.00  0.00     0.234 HD
ENDBRANCH  92  95
ENDBRANCH  82  92
BRANCH  83  97
ATOM     97  S   UNL     1      23.555  13.013  17.367  1.00  0.00     0.270 S 
ATOM     98  O   UNL     1      23.677  14.364  17.992  1.00  0.00    -0.199 OA
ATOM     99  O   UNL     1      22.894  11.996  18.214  1.00  0.00    -0.199 OA
BRANCH  97 100
ATOM    100  O   UNL     1      25.121  12.481  16.995  1.00  0.00    -0.285 OA
ATOM    101  H   UNL     1      25.188  12.264  16.018  1.00  0.00     0.234 HD
ENDBRANCH  97 100
ENDBRANCH  83  97
ENDBRANCH  51  77
BRANCH  51 102
ATOM    102  C   UNL     1      22.258  10.782  11.472  1.00  0.00    -0.018 C 
ATOM    103  C   UNL     1      23.289  11.377  10.620  1.00  0.00     0.033 C 
ATOM    104  C   UNL     1      22.142   9.502  10.579  1.00  0.00     0.033 C 
ATOM    105  C   UNL     1      20.808  11.111  11.250  1.00  0.00     0.033 C 
ATOM    106  C   UNL     1      22.764  11.832   9.233  1.00  0.00     0.101 C 
ATOM    107  C   UNL     1      21.615   9.811   9.180  1.00  0.00     0.101 C 
ATOM    108  C   UNL     1      20.483  11.712   9.903  1.00  0.00     0.101 C 
ATOM    109  C   UNL     1      22.652  10.608   8.370  1.00  0.00     0.051 C 
ATOM    110  C   UNL     1      21.498  12.631   9.343  1.00  0.00     0.051 C 
ATOM    111  C   UNL     1      20.347  10.463   8.986  1.00  0.00     0.051 C 
BRANCH 106 112
ATOM    112  S   UNL     1      23.957  12.880   8.424  1.00  0.00     0.270 S 
ATOM    113  O   UNL     1      25.138  13.102   9.325  1.00  0.00    -0.199 OA
ATOM    114  O   UNL     1      23.357  14.164   7.958  1.00  0.00    -0.199 OA
BRANCH 112 115
ATOM    115  O   UNL     1      24.535  12.004   7.097  1.00  0.00    -0.285 OA
ATOM    116  H   UNL     1      25.069  12.587   6.498  1.00  0.00     0.234 HD
ENDBRANCH 112 115
ENDBRANCH 106 112
BRANCH 107 117
ATOM    117  S   UNL     1      21.533   8.190   8.391  1.00  0.00     0.270 S 
ATOM    118  O   UNL     1      22.147   7.241   9.395  1.00  0.00    -0.199 OA
ATOM    119  O   UNL     1      20.126   7.828   8.121  1.00  0.00    -0.199 OA
BRANCH 117 120
ATOM    120  O   UNL     1      22.525   8.154   7.043  1.00  0.00    -0.285 OA
ATOM    121  H   UNL     1      22.473   7.219   6.678  1.00  0.00     0.234 HD
ENDBRANCH 117 120
ENDBRANCH 107 117
BRANCH 108 122
ATOM    122  S   UNL     1      18.885  12.427   9.940  1.00  0.00     0.270 S 
ATOM    123  O   UNL     1      17.936  11.585   9.149  1.00  0.00    -0.199 OA
ATOM    124  O   UNL     1      18.924  13.783   9.258  1.00  0.00    -0.199 OA
BRANCH 122 125
ATOM    125  O   UNL     1      18.345  12.588  11.525  1.00  0.00    -0.285 OA
ATOM    126  H   UNL     1      17.463  12.138  11.585  1.00  0.00     0.234 HD
ENDBRANCH 122 125
ENDBRANCH 108 122
ENDBRANCH  51 102
ENDBRANCH  50  51
ENDBRANCH  49  50
ENDBRANCH  48  49
ENDBRANCH  47  48
ENDBRANCH  46  47
ENDBRANCH  45  46
ENDBRANCH  44  45
ENDBRANCH  43  44
ENDBRANCH   1  43
TORSDOF 43
ENDMDL
MODEL 9
REMARK VINA RESULT:    -9.559      3.882      8.225
REMARK INTER + INTRA:         -40.213
REMARK INTER:                 -28.482
REMARK INTRA:                 -11.732
REMARK UNBOUND:                -9.141
REMARK SMILES NC(=O)c1ccccc1OCc1cccc(C(=O)NC[C@@H](NC(=O)c2ncc[nH]2)C(=O)NCCCCCCCCCCCC([C@]23C[C@]4(S(=O)(=O)O)C[C@](S(=O)(=O)O)(C2)C[C@](S(=O)(=O)O)(C3)C4)([C@]23C[C@]4(S(=O)(=O)O)C[C@](S(=O)(=O)O)(C2)C[C@](S(=O)(=O)O)(C3)C4)[C@]23C[C@]4(S(=O)(=O)O)C[C@](S(=O)(=O)O)(C2)C[C@](S(=O)(=O)O)(C3)C4)c1
REMARK SMILES IDX 35 1 34 2 33 3 32 4 30 5 31 6 21 8 20 9 19 10 18 11 17 12
REMARK SMILES IDX 16 14 15 15 111 16 14 17 12 18 13 19 11 20 10 21 9 22 4 23
REMARK SMILES IDX 8 24 5 25 7 26 6 27 2 28 1 29 3 30 22 33 23 34 24 36 25 37
REMARK SMILES IDX 26 38 29 39 27 40 28 41 36 43 37 44 38 45 39 46 40 47 41 48
REMARK SMILES IDX 42 49 43 50 44 51 67 52 80 53 87 54 68 55 75 56 82 57 69 58
REMARK SMILES IDX 81 59 74 60 88 61 76 62 77 63 78 64 79 65 83 67 84 68 85 69
REMARK SMILES IDX 86 70 70 72 71 73 72 74 73 75 45 77 46 78 58 79 65 80 47 81
REMARK SMILES IDX 53 82 60 83 52 84 66 85 59 86 48 87 49 88 50 89 51 90 54 92
REMARK SMILES IDX 55 93 56 94 57 95 61 97 62 98 63 99 64 100 89 102 102 103
REMARK SMILES IDX 109 104 90 105 97 106 104 107 91 108 103 109 96 110 110 111
REMARK SMILES IDX 98 112 99 113 100 114 101 115 105 117 106 118 107 119
REMARK SMILES IDX 108 120 92 122 93 123 94 124 95 125
REMARK H PARENT 32 7 19 13 1 31 1 32 22 35 29 42 79 66 86 71 73 76 51 91 57 96
REMARK H PARENT 64 101 101 116 108 121 95 126
REMARK Flexibility Score: inf
ROOT
ATOM      1  C   UNL     1      24.616   8.134  20.450  1.00  0.00     0.002 C 
ENDROOT
BRANCH   1   2
ATOM      2  C   UNL     1      25.466   6.975  20.827  1.00  0.00     0.021 C 
BRANCH   2   3
ATOM      3  C   UNL     1      24.828   5.708  20.247  1.00  0.00     0.116 C 
BRANCH   3   4
ATOM      4  N   UNL     1      25.311   5.505  18.912  1.00  0.00    -0.354 N 
ATOM      5  C   UNL     1      25.179   4.214  18.334  1.00  0.00     0.244 C 
ATOM      6  O   UNL     1      24.660   3.305  19.037  1.00  0.00    -0.273 OA
ATOM      7  H   UNL     1      25.746   6.268  18.378  1.00  0.00     0.163 HD
BRANCH   5   8
ATOM      8  C   UNL     1      25.597   3.861  16.952  1.00  0.00     0.191 C 
BRANCH   8   9
ATOM      9  C   UNL     1      24.539   3.360  16.062  1.00  0.00     0.151 C 
BRANCH   9  10
ATOM     10  N   UNL     1      23.587   2.418  16.575  1.00  0.00    -0.349 N 
ATOM     11  O   UNL     1      24.133   0.767  15.048  1.00  0.00    -0.269 OA
ATOM     12  C   UNL     1      23.415   1.134  16.031  1.00  0.00     0.251 C 
ATOM     13  H   UNL     1      23.000   2.723  17.393  1.00  0.00     0.163 HD
BRANCH  12  14
ATOM     14  C   UNL     1      22.436   0.199  16.561  1.00  0.00     0.040 A 
ATOM     15  C   UNL     1      22.517  -1.154  16.404  1.00  0.00     0.014 A 
ATOM     16  C   UNL     1      21.314   0.689  17.257  1.00  0.00     0.021 A 
ATOM     17  C   UNL     1      21.535  -1.999  16.910  1.00  0.00     0.001 A 
ATOM     18  C   UNL     1      20.354  -0.159  17.747  1.00  0.00    -0.010 A 
ATOM     19  C   UNL     1      20.434  -1.528  17.591  1.00  0.00     0.007 A 
BRANCH  18  20
ATOM     20  C   UNL     1      19.178   0.398  18.487  1.00  0.00     0.265 C 
BRANCH  20  21
ATOM     21  O   UNL     1      19.308   1.724  18.846  1.00  0.00    -0.488 OA
BRANCH  21  22
ATOM     22  C   UNL     1      19.764   2.278  20.008  1.00  0.00     0.132 A 
ATOM     23  C   UNL     1      18.796   2.730  20.900  1.00  0.00     0.081 A 
ATOM     24  C   UNL     1      21.103   2.418  20.343  1.00  0.00     0.047 A 
ATOM     25  C   UNL     1      19.152   3.299  22.081  1.00  0.00     0.018 A 
ATOM     26  C   UNL     1      21.437   2.992  21.534  1.00  0.00     0.004 A 
ATOM     27  C   UNL     1      20.502   3.448  22.437  1.00  0.00     0.001 A 
BRANCH  23  28
ATOM     28  C   UNL     1      17.363   2.580  20.558  1.00  0.00     0.252 C 
ATOM     29  N   UNL     1      16.893   2.969  19.292  1.00  0.00    -0.365 N 
ATOM     30  O   UNL     1      16.594   2.106  21.407  1.00  0.00    -0.269 OA
ATOM     31  H   UNL     1      16.997   2.297  18.486  1.00  0.00     0.159 HD
ATOM     32  H   UNL     1      16.447   3.903  19.134  1.00  0.00     0.159 HD
ENDBRANCH  23  28
ENDBRANCH  21  22
ENDBRANCH  20  21
ENDBRANCH  18  20
ENDBRANCH  12  14
ENDBRANCH   9  10
ENDBRANCH   8   9
BRANCH   8  33
ATOM     33  N   UNL     1      26.544   4.814  16.475  1.00  0.00    -0.336 N 
ATOM     34  C   UNL     1      27.675   4.443  15.708  1.00  0.00     0.287 C 
ATOM     35  H   UNL     1      26.442   5.846  16.723  1.00  0.00     0.164 HD
ATOM     36  O   UNL     1      27.832   3.230  15.430  1.00  0.00    -0.266 OA
BRANCH  34  37
ATOM     37  C   UNL     1      28.644   5.410  15.244  1.00  0.00     0.196 A 
ATOM     38  N   UNL     1      29.557   6.074  15.994  1.00  0.00    -0.232 NA
ATOM     39  N   UNL     1      28.834   5.863  13.992  1.00  0.00    -0.341 N 
ATOM     40  C   UNL     1      30.285   6.908  15.233  1.00  0.00     0.131 A 
ATOM     41  C   UNL     1      29.820   6.770  13.951  1.00  0.00     0.104 A 
ATOM     42  H   UNL     1      28.282   5.546  13.167  1.00  0.00     0.168 HD
ENDBRANCH  34  37
ENDBRANCH   8  33
ENDBRANCH   5   8
ENDBRANCH   3   4
ENDBRANCH   2   3
ENDBRANCH   1   2
BRANCH   1  43
ATOM     43  C   UNL     1      23.158   7.761  20.234  1.00  0.00     0.000 C 
BRANCH  43  44
ATOM     44  C   UNL     1      22.458   9.021  19.865  1.00  0.00     0.000 C 
BRANCH  44  45
ATOM     45  C   UNL     1      21.396   9.002  18.837  1.00  0.00     0.000 C 
BRANCH  45  46
ATOM     46  C   UNL     1      21.647   9.001  17.410  1.00  0.00     0.000 C 
BRANCH  46  47
ATOM     47  C   UNL     1      20.674   9.254  16.361  1.00  0.00     0.000 C 
BRANCH  47  48
ATOM     48  C   UNL     1      20.448   8.356  15.244  1.00  0.00     0.000 C 
BRANCH  48  49
ATOM     49  C   UNL     1      21.428   8.363  14.064  1.00  0.00     0.001 C 
BRANCH  49  50
ATOM     50  C   UNL     1      21.515   9.622  13.472  1.00  0.00     0.009 C 
BRANCH  50  51
ATOM     51  C   UNL     1      22.589  10.491  12.810  1.00  0.00    -0.012 C 
BRANCH  51  52
ATOM     52  C   UNL     1      23.887   9.791  13.131  1.00  0.00    -0.018 C 
ATOM     53  C   UNL     1      24.055   8.432  12.485  1.00  0.00     0.033 C 
ATOM     54  C   UNL     1      25.168  10.395  12.610  1.00  0.00     0.033 C 
ATOM     55  C   UNL     1      24.057   9.375  14.548  1.00  0.00     0.033 C 
ATOM     56  C   UNL     1      25.373   7.745  12.756  1.00  0.00     0.101 C 
ATOM     57  C   UNL     1      26.445   9.792  13.182  1.00  0.00     0.101 C 
ATOM     58  C   UNL     1      25.346   8.591  14.844  1.00  0.00     0.101 C 
ATOM     59  C   UNL     1      26.636   8.419  12.499  1.00  0.00     0.051 C 
ATOM     60  C   UNL     1      25.404   7.276  14.195  1.00  0.00     0.051 C 
ATOM     61  C   UNL     1      26.499   9.510  14.605  1.00  0.00     0.051 C 
BRANCH  56  62
ATOM     62  S   UNL     1      25.332   6.225  11.793  1.00  0.00     0.270 S 
ATOM     63  O   UNL     1      26.037   5.181  12.624  1.00  0.00    -0.199 OA
ATOM     64  O   UNL     1      23.916   5.829  11.511  1.00  0.00    -0.199 OA
BRANCH  62  65
ATOM     65  O   UNL     1      26.230   6.473  10.402  1.00  0.00    -0.285 OA
ATOM     66  H   UNL     1      27.135   6.754  10.668  1.00  0.00     0.234 HD
ENDBRANCH  62  65
ENDBRANCH  56  62
BRANCH  57  67
ATOM     67  S   UNL     1      27.819  10.815  12.659  1.00  0.00     0.270 S 
ATOM     68  O   UNL     1      29.081  10.040  12.727  1.00  0.00    -0.199 OA
ATOM     69  O   UNL     1      27.909  11.951  13.660  1.00  0.00    -0.199 OA
BRANCH  67  70
ATOM     70  O   UNL     1      27.500  11.462  11.165  1.00  0.00    -0.285 OA
ATOM     71  H   UNL     1      27.512  12.458  11.245  1.00  0.00     0.234 HD
ENDBRANCH  67  70
ENDBRANCH  57  67
BRANCH  58  72
ATOM     72  S   UNL     1      25.348   8.230  16.608  1.00  0.00     0.270 S 
ATOM     73  O   UNL     1      24.309   7.229  16.944  1.00  0.00    -0.199 OA
ATOM     74  O   UNL     1      26.701   7.764  17.073  1.00  0.00    -0.199 OA
BRANCH  72  75
ATOM     75  O   UNL     1      25.051   9.707  17.375  1.00  0.00    -0.285 OA
ATOM     76  H   UNL     1      25.902  10.083  17.715  1.00  0.00     0.234 HD
ENDBRANCH  72  75
ENDBRANCH  58  72
ENDBRANCH  51  52
BRANCH  51  77
ATOM     77  C   UNL     1      22.407  11.832  13.516  1.00  0.00    -0.018 C 
ATOM     78  C   UNL     1      21.026  12.041  14.061  1.00  0.00     0.033 C 
ATOM     79  C   UNL     1      23.036  13.016  12.920  1.00  0.00     0.033 C 
ATOM     80  C   UNL     1      23.046  11.873  14.910  1.00  0.00     0.033 C 
ATOM     81  C   UNL     1      20.812  13.449  14.647  1.00  0.00     0.101 C 
ATOM     82  C   UNL     1      22.632  14.372  13.543  1.00  0.00     0.101 C 
ATOM     83  C   UNL     1      22.908  13.203  15.594  1.00  0.00     0.101 C 
ATOM     84  C   UNL     1      21.183  14.519  13.688  1.00  0.00     0.051 C 
ATOM     85  C   UNL     1      21.465  13.498  15.980  1.00  0.00     0.051 C 
ATOM     86  C   UNL     1      23.321  14.426  14.890  1.00  0.00     0.051 C 
BRANCH  81  87
ATOM     87  S   UNL     1      19.064  13.672  14.986  1.00  0.00     0.270 S 
ATOM     88  O   UNL     1      18.541  14.630  13.935  1.00  0.00    -0.199 OA
ATOM     89  O   UNL     1      18.359  12.375  14.944  1.00  0.00    -0.199 OA
BRANCH  87  90
ATOM     90  O   UNL     1      18.950  14.441  16.474  1.00  0.00    -0.285 OA
ATOM     91  H   UNL     1      18.139  14.181  16.978  1.00  0.00     0.234 HD
ENDBRANCH  87  90
ENDBRANCH  81  87
BRANCH  82  92
ATOM     92  S   UNL     1      23.371  15.631  12.521  1.00  0.00     0.270 S 
ATOM     93  O   UNL     1      22.331  16.628  12.089  1.00  0.00    -0.199 OA
ATOM     94  O   UNL     1      24.444  16.375  13.250  1.00  0.00    -0.199 OA
BRANCH  92  95
ATOM     95  O   UNL     1      24.083  14.946  11.152  1.00  0.00    -0.285 OA
ATOM     96  H   UNL     1      24.524  14.102  11.360  1.00  0.00     0.234 HD
ENDBRANCH  92  95
ENDBRANCH  82  92
BRANCH  83  97
ATOM     97  S   UNL     1      23.847  13.127  17.119  1.00  0.00     0.270 S 
ATOM     98  O   UNL     1      25.211  12.574  16.857  1.00  0.00    -0.199 OA
ATOM     99  O   UNL     1      23.832  14.449  17.782  1.00  0.00    -0.199 OA
BRANCH  97 100
ATOM    100  O   UNL     1      23.027  12.013  18.098  1.00  0.00    -0.285 OA
ATOM    101  H   UNL     1      23.163  12.241  19.066  1.00  0.00     0.234 HD
ENDBRANCH  97 100
ENDBRANCH  83  97
ENDBRANCH  51  77
BRANCH  51 102
ATOM    102  C   UNL     1      22.256  10.747  11.362  1.00  0.00    -0.018 C 
ATOM    103  C   UNL     1      23.249  11.343  10.467  1.00  0.00     0.033 C 
ATOM    104  C   UNL     1      22.133   9.449  10.496  1.00  0.00     0.033 C 
ATOM    105  C   UNL     1      20.795  11.048  11.183  1.00  0.00     0.033 C 
ATOM    106  C   UNL     1      22.672  11.764   9.090  1.00  0.00     0.101 C 
ATOM    107  C   UNL     1      21.555   9.725   9.109  1.00  0.00     0.101 C 
ATOM    108  C   UNL     1      20.416  11.619   9.837  1.00  0.00     0.101 C 
ATOM    109  C   UNL     1      22.552  10.523   8.252  1.00  0.00     0.051 C 
ATOM    110  C   UNL     1      21.396  12.544   9.227  1.00  0.00     0.051 C 
ATOM    111  C   UNL     1      20.271  10.352   8.946  1.00  0.00     0.051 C 
BRANCH 106 112
ATOM    112  S   UNL     1      23.820  12.817   8.224  1.00  0.00     0.270 S 
ATOM    113  O   UNL     1      25.052  13.026   9.057  1.00  0.00    -0.199 OA
ATOM    114  O   UNL     1      23.198  14.108   7.807  1.00  0.00    -0.199 OA
BRANCH 112 115
ATOM    115  O   UNL     1      24.317  11.954   6.857  1.00  0.00    -0.285 OA
ATOM    116  H   UNL     1      24.077  10.995   6.941  1.00  0.00     0.234 HD
ENDBRANCH 112 115
ENDBRANCH 106 112
BRANCH 107 117
ATOM    117  S   UNL     1      21.475   8.088   8.352  1.00  0.00     0.270 S 
ATOM    118  O   UNL     1      20.003   7.849   8.104  1.00  0.00    -0.199 OA
ATOM    119  O   UNL     1      22.228   8.081   7.081  1.00  0.00    -0.199 OA
BRANCH 117 120
ATOM    120  O   UNL     1      21.962   6.921   9.449  1.00  0.00    -0.285 OA
ATOM    121  H   UNL     1      21.284   6.182   9.395  1.00  0.00     0.234 HD
ENDBRANCH 117 120
ENDBRANCH 107 117
BRANCH 108 122
ATOM    122  S   UNL     1      18.808  12.309   9.914  1.00  0.00     0.270 S 
ATOM    123  O   UNL     1      18.860  13.755   9.539  1.00  0.00    -0.199 OA
ATOM    124  O   UNL     1      18.305  12.255  11.345  1.00  0.00    -0.199 OA
BRANCH 122 125
ATOM    125  O   UNL     1      17.758  11.476   8.896  1.00  0.00    -0.285 OA
ATOM    126  H   UNL     1      17.850  11.868   7.990  1.00  0.00     0.234 HD
ENDBRANCH 122 125
ENDBRANCH 108 122
ENDBRANCH  51 102
ENDBRANCH  50  51
ENDBRANCH  49  50
ENDBRANCH  48  49
ENDBRANCH  47  48
ENDBRANCH  46  47
ENDBRANCH  45  46
ENDBRANCH  44  45
ENDBRANCH  43  44
ENDBRANCH   1  43
TORSDOF 43
ENDMDL
MODEL 10
REMARK VINA RESULT:    -9.552      1.449      3.666
REMARK INTER + INTRA:         -40.192
REMARK INTER:                 -29.571
REMARK INTRA:                 -10.621
REMARK UNBOUND:                -9.141
REMARK SMILES NC(=O)c1ccccc1OCc1cccc(C(=O)NC[C@@H](NC(=O)c2ncc[nH]2)C(=O)NCCCCCCCCCCCC([C@]23C[C@]4(S(=O)(=O)O)C[C@](S(=O)(=O)O)(C2)C[C@](S(=O)(=O)O)(C3)C4)([C@]23C[C@]4(S(=O)(=O)O)C[C@](S(=O)(=O)O)(C2)C[C@](S(=O)(=O)O)(C3)C4)[C@]23C[C@]4(S(=O)(=O)O)C[C@](S(=O)(=O)O)(C2)C[C@](S(=O)(=O)O)(C3)C4)c1
REMARK SMILES IDX 35 1 34 2 33 3 32 4 30 5 31 6 21 8 20 9 19 10 18 11 17 12
REMARK SMILES IDX 16 14 15 15 111 16 14 17 12 18 13 19 11 20 10 21 9 22 4 23
REMARK SMILES IDX 8 24 5 25 7 26 6 27 2 28 1 29 3 30 22 33 23 34 24 36 25 37
REMARK SMILES IDX 26 38 29 39 27 40 28 41 36 43 37 44 38 45 39 46 40 47 41 48
REMARK SMILES IDX 42 49 43 50 44 51 67 52 80 53 87 54 68 55 75 56 82 57 69 58
REMARK SMILES IDX 81 59 74 60 88 61 76 62 77 63 78 64 79 65 83 67 84 68 85 69
REMARK SMILES IDX 86 70 70 72 71 73 72 74 73 75 45 77 46 78 58 79 65 80 47 81
REMARK SMILES IDX 53 82 60 83 52 84 66 85 59 86 48 87 49 88 50 89 51 90 54 92
REMARK SMILES IDX 55 93 56 94 57 95 61 97 62 98 63 99 64 100 89 102 102 103
REMARK SMILES IDX 109 104 90 105 97 106 104 107 91 108 103 109 96 110 110 111
REMARK SMILES IDX 98 112 99 113 100 114 101 115 105 117 106 118 107 119
REMARK SMILES IDX 108 120 92 122 93 123 94 124 95 125
REMARK H PARENT 32 7 19 13 1 31 1 32 22 35 29 42 79 66 86 71 73 76 51 91 57 96
REMARK H PARENT 64 101 101 116 108 121 95 126
REMARK Flexibility Score: inf
ROOT
ATOM      1  C   UNL     1      21.397   1.515  14.306  1.00  0.00     0.002 C 
ENDROOT
BRANCH   1   2
ATOM      2  C   UNL     1      20.046   1.967  13.882  1.00  0.00     0.021 C 
BRANCH   2   3
ATOM      3  C   UNL     1      19.015   0.991  14.461  1.00  0.00     0.116 C 
BRANCH   3   4
ATOM      4  N   UNL     1      19.515  -0.348  14.344  1.00  0.00    -0.354 N 
ATOM      5  C   UNL     1      19.203  -1.278  15.372  1.00  0.00     0.244 C 
ATOM      6  O   UNL     1      18.518  -0.869  16.348  1.00  0.00    -0.273 OA
ATOM      7  H   UNL     1      20.087  -0.638  13.541  1.00  0.00     0.163 HD
BRANCH   5   8
ATOM      8  C   UNL     1      19.616  -2.707  15.371  1.00  0.00     0.191 C 
BRANCH   8   9
ATOM      9  C   UNL     1      20.573  -3.106  16.413  1.00  0.00     0.151 C 
BRANCH   9  10
ATOM     10  N   UNL     1      21.337  -2.093  17.081  1.00  0.00    -0.349 N 
ATOM     11  O   UNL     1      22.706  -1.677  15.262  1.00  0.00    -0.269 OA
ATOM     12  C   UNL     1      22.400  -1.409  16.467  1.00  0.00     0.251 C 
ATOM     13  H   UNL     1      21.075  -1.868  18.076  1.00  0.00     0.163 HD
BRANCH  12  14
ATOM     14  C   UNL     1      23.167  -0.392  17.166  1.00  0.00     0.040 A 
ATOM     15  C   UNL     1      24.530  -0.375  17.222  1.00  0.00     0.014 A 
ATOM     16  C   UNL     1      22.492   0.632  17.860  1.00  0.00     0.021 A 
ATOM     17  C   UNL     1      25.211   0.609  17.932  1.00  0.00     0.001 A 
ATOM     18  C   UNL     1      23.180   1.593  18.556  1.00  0.00    -0.010 A 
ATOM     19  C   UNL     1      24.559   1.613  18.613  1.00  0.00     0.007 A 
BRANCH  18  20
ATOM     20  C   UNL     1      22.429   2.670  19.276  1.00  0.00     0.265 C 
BRANCH  20  21
ATOM     21  O   UNL     1      21.364   2.215  20.026  1.00  0.00    -0.488 OA
BRANCH  21  22
ATOM     22  C   UNL     1      20.024   2.261  19.766  1.00  0.00     0.132 A 
ATOM     23  C   UNL     1      19.209   2.717  20.798  1.00  0.00     0.081 A 
ATOM     24  C   UNL     1      19.440   1.886  18.565  1.00  0.00     0.047 A 
ATOM     25  C   UNL     1      17.863   2.796  20.636  1.00  0.00     0.018 A 
ATOM     26  C   UNL     1      18.086   1.973  18.425  1.00  0.00     0.004 A 
ATOM     27  C   UNL     1      17.254   2.421  19.428  1.00  0.00     0.001 A 
BRANCH  23  28
ATOM     28  C   UNL     1      19.820   3.128  22.083  1.00  0.00     0.252 C 
ATOM     29  N   UNL     1      20.675   2.252  22.773  1.00  0.00    -0.365 N 
ATOM     30  O   UNL     1      19.563   4.255  22.532  1.00  0.00    -0.269 OA
ATOM     31  H   UNL     1      21.688   2.202  22.483  1.00  0.00     0.159 HD
ATOM     32  H   UNL     1      20.330   1.652  23.558  1.00  0.00     0.159 HD
ENDBRANCH  23  28
ENDBRANCH  21  22
ENDBRANCH  20  21
ENDBRANCH  18  20
ENDBRANCH  12  14
ENDBRANCH   9  10
ENDBRANCH   8   9
BRANCH   8  33
ATOM     33  N   UNL     1      18.495  -3.534  15.071  1.00  0.00    -0.336 N 
ATOM     34  C   UNL     1      18.608  -4.936  14.904  1.00  0.00     0.287 C 
ATOM     35  H   UNL     1      17.531  -3.103  14.923  1.00  0.00     0.164 HD
ATOM     36  O   UNL     1      19.738  -5.461  15.044  1.00  0.00    -0.266 OA
BRANCH  34  37
ATOM     37  C   UNL     1      17.472  -5.768  14.580  1.00  0.00     0.196 A 
ATOM     38  N   UNL     1      17.395  -6.694  13.593  1.00  0.00    -0.232 NA
ATOM     39  N   UNL     1      16.262  -5.793  15.168  1.00  0.00    -0.341 N 
ATOM     40  C   UNL     1      16.181  -7.269  13.570  1.00  0.00     0.131 A 
ATOM     41  C   UNL     1      15.458  -6.690  14.581  1.00  0.00     0.104 A 
ATOM     42  H   UNL     1      15.993  -5.189  15.973  1.00  0.00     0.168 HD
ENDBRANCH  34  37
ENDBRANCH   8  33
ENDBRANCH   5   8
ENDBRANCH   3   4
ENDBRANCH   2   3
ENDBRANCH   1   2
BRANCH   1  43
ATOM     43  C   UNL     1      22.370   2.662  14.526  1.00  0.00     0.000 C 
BRANCH  43  44
ATOM     44  C   UNL     1      23.722   2.048  14.609  1.00  0.00     0.000 C 
BRANCH  44  45
ATOM     45  C   UNL     1      24.877   2.861  15.045  1.00  0.00     0.000 C 
BRANCH  45  46
ATOM     46  C   UNL     1      24.764   4.093  15.798  1.00  0.00     0.000 C 
BRANCH  46  47
ATOM     47  C   UNL     1      25.791   4.694  16.632  1.00  0.00     0.000 C 
BRANCH  47  48
ATOM     48  C   UNL     1      25.586   5.051  18.024  1.00  0.00     0.000 C 
BRANCH  48  49
ATOM     49  C   UNL     1      25.831   6.498  18.472  1.00  0.00     0.001 C 
BRANCH  49  50
ATOM     50  C   UNL     1      26.597   7.203  17.545  1.00  0.00     0.009 C 
BRANCH  50  51
ATOM     51  C   UNL     1      26.691   8.635  17.009  1.00  0.00    -0.012 C 
BRANCH  51  52
ATOM     52  C   UNL     1      25.850   8.622  15.755  1.00  0.00    -0.018 C 
ATOM     53  C   UNL     1      26.005   9.843  14.871  1.00  0.00     0.033 C 
ATOM     54  C   UNL     1      26.168   7.595  14.697  1.00  0.00     0.033 C 
ATOM     55  C   UNL     1      24.381   8.700  15.969  1.00  0.00     0.033 C 
ATOM     56  C   UNL     1      25.208   9.817  13.588  1.00  0.00     0.101 C 
ATOM     57  C   UNL     1      25.130   7.468  13.588  1.00  0.00     0.101 C 
ATOM     58  C   UNL     1      23.541   8.769  14.682  1.00  0.00     0.101 C 
ATOM     59  C   UNL     1      25.308   8.696  12.666  1.00  0.00     0.051 C 
ATOM     60  C   UNL     1      23.740   9.999  13.908  1.00  0.00     0.051 C 
ATOM     61  C   UNL     1      23.725   7.478  13.953  1.00  0.00     0.051 C 
BRANCH  56  62
ATOM     62  S   UNL     1      25.663  11.319  12.708  1.00  0.00     0.270 S 
ATOM     63  O   UNL     1      24.784  11.371  11.482  1.00  0.00    -0.199 OA
ATOM     64  O   UNL     1      25.447  12.516  13.581  1.00  0.00    -0.199 OA
BRANCH  62  65
ATOM     65  O   UNL     1      27.250  11.159  12.201  1.00  0.00    -0.285 OA
ATOM     66  H   UNL     1      27.340  11.606  11.329  1.00  0.00     0.234 HD
ENDBRANCH  62  65
ENDBRANCH  56  62
BRANCH  57  67
ATOM     67  S   UNL     1      25.546   6.030  12.605  1.00  0.00     0.270 S 
ATOM     68  O   UNL     1      26.745   5.364  13.167  1.00  0.00    -0.199 OA
ATOM     69  O   UNL     1      25.898   6.547  11.223  1.00  0.00    -0.199 OA
BRANCH  67  70
ATOM     70  O   UNL     1      24.221   5.040  12.469  1.00  0.00    -0.285 OA
ATOM     71  H   UNL     1      23.953   4.746  13.385  1.00  0.00     0.234 HD
ENDBRANCH  67  70
ENDBRANCH  57  67
BRANCH  58  72
ATOM     72  S   UNL     1      21.814   8.820  15.186  1.00  0.00     0.270 S 
ATOM     73  O   UNL     1      21.196  10.117  14.826  1.00  0.00    -0.199 OA
ATOM     74  O   UNL     1      21.033   7.680  14.590  1.00  0.00    -0.199 OA
BRANCH  72  75
ATOM     75  O   UNL     1      21.820   8.584  16.860  1.00  0.00    -0.285 OA
ATOM     76  H   UNL     1      21.871   9.460  17.319  1.00  0.00     0.234 HD
ENDBRANCH  72  75
ENDBRANCH  58  72
ENDBRANCH  51  52
BRANCH  51  77
ATOM     77  C   UNL     1      28.188   8.795  16.758  1.00  0.00    -0.018 C 
ATOM     78  C   UNL     1      29.029   8.551  17.976  1.00  0.00     0.033 C 
ATOM     79  C   UNL     1      28.629   9.898  15.898  1.00  0.00     0.033 C 
ATOM     80  C   UNL     1      28.804   7.612  16.002  1.00  0.00     0.033 C 
ATOM     81  C   UNL     1      30.523   8.850  17.750  1.00  0.00     0.101 C 
ATOM     82  C   UNL     1      30.155  10.150  15.864  1.00  0.00     0.101 C 
ATOM     83  C   UNL     1      30.269   7.780  15.715  1.00  0.00     0.101 C 
ATOM     84  C   UNL     1      30.747  10.210  17.201  1.00  0.00     0.051 C 
ATOM     85  C   UNL     1      31.108   7.721  16.983  1.00  0.00     0.051 C 
ATOM     86  C   UNL     1      30.742   9.009  15.060  1.00  0.00     0.051 C 
BRANCH  81  87
ATOM     87  S   UNL     1      31.364   8.812  19.335  1.00  0.00     0.270 S 
ATOM     88  O   UNL     1      32.848   8.877  19.037  1.00  0.00    -0.199 OA
ATOM     89  O   UNL     1      30.925   9.940  20.181  1.00  0.00    -0.199 OA
BRANCH  87  90
ATOM     90  O   UNL     1      31.049   7.310  20.018  1.00  0.00    -0.285 OA
ATOM     91  H   UNL     1      30.709   6.654  19.359  1.00  0.00     0.234 HD
ENDBRANCH  87  90
ENDBRANCH  81  87
BRANCH  82  92
ATOM     92  S   UNL     1      30.393  11.641  14.918  1.00  0.00     0.270 S 
ATOM     93  O   UNL     1      31.256  11.364  13.718  1.00  0.00    -0.199 OA
ATOM     94  O   UNL     1      29.094  12.199  14.429  1.00  0.00    -0.199 OA
BRANCH  92  95
ATOM     95  O   UNL     1      31.123  12.837  15.861  1.00  0.00    -0.285 OA
ATOM     96  H   UNL     1      30.910  13.730  15.537  1.00  0.00     0.234 HD
ENDBRANCH  92  95
ENDBRANCH  82  92
BRANCH  83  97
ATOM     97  S   UNL     1      30.781   6.403  14.689  1.00  0.00     0.270 S 
ATOM     98  O   UNL     1      31.596   6.894  13.536  1.00  0.00    -0.199 OA
ATOM     99  O   UNL     1      31.444   5.377  15.523  1.00  0.00    -0.199 OA
BRANCH  97 100
ATOM    100  O   UNL     1      29.348   5.755  14.058  1.00  0.00    -0.285 OA
ATOM    101  H   UNL     1      29.534   5.290  13.189  1.00  0.00     0.234 HD
ENDBRANCH  97 100
ENDBRANCH  83  97
ENDBRANCH  51  77
BRANCH  51 102
ATOM    102  C   UNL     1      26.350   9.635  18.085  1.00  0.00    -0.018 C 
ATOM    103  C   UNL     1      26.317  11.067  17.783  1.00  0.00     0.033 C 
ATOM    104  C   UNL     1      24.851   9.609  18.530  1.00  0.00     0.033 C 
ATOM    105  C   UNL     1      26.797   9.155  19.437  1.00  0.00     0.033 C 
ATOM    106  C   UNL     1      26.197  11.965  19.042  1.00  0.00     0.101 C 
ATOM    107  C   UNL     1      24.598  10.448  19.781  1.00  0.00     0.101 C 
ATOM    108  C   UNL     1      26.788  10.201  20.527  1.00  0.00     0.101 C 
ATOM    109  C   UNL     1      24.758  11.946  19.474  1.00  0.00     0.051 C 
ATOM    110  C   UNL     1      27.171  11.569  20.113  1.00  0.00     0.051 C 
ATOM    111  C   UNL     1      25.308  10.196  21.006  1.00  0.00     0.051 C 
BRANCH 106 112
ATOM    112  S   UNL     1      26.552  13.664  18.637  1.00  0.00     0.270 S 
ATOM    113  O   UNL     1      27.471  13.726  17.450  1.00  0.00    -0.199 OA
ATOM    114  O   UNL     1      27.089  14.423  19.804  1.00  0.00    -0.199 OA
BRANCH 112 115
ATOM    115  O   UNL     1      25.089  14.348  18.134  1.00  0.00    -0.285 OA
ATOM    116  H   UNL     1      24.824  13.997  17.245  1.00  0.00     0.234 HD
ENDBRANCH 112 115
ENDBRANCH 106 112
BRANCH 107 117
ATOM    117  S   UNL     1      22.837  10.210  20.100  1.00  0.00     0.270 S 
ATOM    118  O   UNL     1      22.711  10.232  21.607  1.00  0.00    -0.199 OA
ATOM    119  O   UNL     1      22.059  11.311  19.494  1.00  0.00    -0.199 OA
BRANCH 117 120
ATOM    120  O   UNL     1      22.364   8.681  19.611  1.00  0.00    -0.285 OA
ATOM    121  H   UNL     1      23.110   8.323  19.041  1.00  0.00     0.234 HD
ENDBRANCH 117 120
ENDBRANCH 107 117
BRANCH 108 122
ATOM    122  S   UNL     1      27.715   9.637  21.902  1.00  0.00     0.270 S 
ATOM    123  O   UNL     1      26.789   9.238  23.006  1.00  0.00    -0.199 OA
ATOM    124  O   UNL     1      28.560  10.776  22.441  1.00  0.00    -0.199 OA
BRANCH 122 125
ATOM    125  O   UNL     1      28.696   8.342  21.463  1.00  0.00    -0.285 OA
ATOM    126  H   UNL     1      29.033   7.929  22.298  1.00  0.00     0.234 HD
ENDBRANCH 122 125
ENDBRANCH 108 122
ENDBRANCH  51 102
ENDBRANCH  50  51
ENDBRANCH  49  50
ENDBRANCH  48  49
ENDBRANCH  47  48
ENDBRANCH  46  47
ENDBRANCH  45  46
ENDBRANCH  44  45
ENDBRANCH  43  44
ENDBRANCH   1  43
TORSDOF 43
ENDMDL
