MODEL 1
REMARK VINA RESULT:   -12.735      0.000      0.000
REMARK INTER + INTRA:         -15.715
REMARK INTER:                 -15.713
REMARK INTRA:                  -0.002
REMARK UNBOUND:                -0.002
REMARK SMILES O=C(c1cc(Cc2n[nH]c(=O)c3ccccc23)ccc1F)N1CCN(C(=O)C2CC2)CC1
REMARK SMILES IDX 5 1 18 2 19 3 20 4 3 5 4 6 21 7 6 8 7 9 15 10 14 11 16 12
REMARK SMILES IDX 13 13 17 14 12 15 10 16 8 17 9 18 11 19 2 21 1 22 22 23
REMARK SMILES IDX 23 24 32 25 24 26 31 27 25 28 26 29 27 30 28 31 29 32 30 33
REMARK H PARENT 9 20
REMARK Flexibility Score: inf
ROOT
ATOM      1  C   UNL     1      20.561   0.304  16.990  1.00  0.00    -0.041 A 
ATOM      2  C   UNL     1      21.383  -0.769  17.246  1.00  0.00     0.007 A 
ATOM      3  C   UNL     1      21.263  -1.972  16.577  1.00  0.00     0.040 A 
ATOM      4  C   UNL     1      20.286  -2.112  15.613  1.00  0.00     0.135 A 
ATOM      5  C   UNL     1      19.447  -1.056  15.334  1.00  0.00     0.076 A 
ATOM      6  C   UNL     1      19.590   0.146  16.024  1.00  0.00     0.021 A 
ATOM      7  F   UNL     1      20.207  -3.313  14.983  1.00  0.00    -0.206 F 
ENDROOT
BRANCH   1   8
ATOM      8  C   UNL     1      20.742   1.550  17.734  1.00  0.00     0.094 C 
BRANCH   8   9
ATOM      9  C   UNL     1      19.584   1.920  18.566  1.00  0.00     0.073 A 
ATOM     10  C   UNL     1      21.364   2.801  21.673  1.00  0.00     0.001 A 
ATOM     11  C   UNL     1      20.309   3.157  22.485  1.00  0.00     0.001 A 
ATOM     12  C   UNL     1      21.110   2.395  20.379  1.00  0.00     0.011 A 
ATOM     13  C   UNL     1      19.046   3.093  21.978  1.00  0.00     0.014 A 
ATOM     14  C   UNL     1      19.831   2.328  19.861  1.00  0.00     0.011 A 
ATOM     15  C   UNL     1      18.794   2.689  20.696  1.00  0.00     0.050 A 
ATOM     16  C   UNL     1      17.486   2.644  20.234  1.00  0.00     0.272 A 
ATOM     17  N   UNL     1      18.311   1.892  18.166  1.00  0.00    -0.177 NA
ATOM     18  N   UNL     1      17.307   2.238  18.962  1.00  0.00    -0.243 N 
ATOM     19  O   UNL     1      16.529   2.972  20.987  1.00  0.00    -0.267 OA
ATOM     20  H   UNL     1      16.308   2.211  18.632  1.00  0.00     0.194 HD
ENDBRANCH   8   9
ENDBRANCH   1   8
BRANCH   5  21
ATOM     21  C   UNL     1      18.428  -1.239  14.312  1.00  0.00     0.256 C 
ATOM     22  O   UNL     1      18.669  -0.701  13.192  1.00  0.00    -0.269 OA
ATOM     23  N   UNL     1      17.240  -1.976  14.557  1.00  0.00    -0.335 N 
ATOM     24  C   UNL     1      16.264  -2.125  13.501  1.00  0.00     0.141 C 
ATOM     25  C   UNL     1      16.952  -2.595  15.828  1.00  0.00     0.141 C 
ATOM     26  C   UNL     1      16.187  -3.618  13.193  1.00  0.00     0.141 C 
ATOM     27  C   UNL     1      15.942  -3.691  15.721  1.00  0.00     0.141 C 
ATOM     28  N   UNL     1      15.939  -4.330  14.419  1.00  0.00    -0.339 N 
ATOM     29  C   UNL     1      15.681  -5.718  14.363  1.00  0.00     0.225 C 
ATOM     30  O   UNL     1      15.460  -6.374  15.419  1.00  0.00    -0.275 OA
BRANCH  29  31
ATOM     31  C   UNL     1      15.675  -6.390  13.031  1.00  0.00     0.079 C 
ATOM     32  C   UNL     1      16.156  -7.817  13.043  1.00  0.00     0.014 C 
ATOM     33  C   UNL     1      16.992  -6.766  12.431  1.00  0.00     0.014 C 
ENDBRANCH  29  31
ENDBRANCH   5  21
TORSDOF 4
ENDMDL
MODEL 2
REMARK VINA RESULT:   -12.729      1.793      2.194
REMARK INTER + INTRA:         -15.708
REMARK INTER:                 -15.897
REMARK INTRA:                   0.190
REMARK UNBOUND:                -0.002
REMARK SMILES O=C(c1cc(Cc2n[nH]c(=O)c3ccccc23)ccc1F)N1CCN(C(=O)C2CC2)CC1
REMARK SMILES IDX 5 1 18 2 19 3 20 4 3 5 4 6 21 7 6 8 7 9 15 10 14 11 16 12
REMARK SMILES IDX 13 13 17 14 12 15 10 16 8 17 9 18 11 19 2 21 1 22 22 23
REMARK SMILES IDX 23 24 32 25 24 26 31 27 25 28 26 29 27 30 28 31 29 32 30 33
REMARK H PARENT 9 20
REMARK Flexibility Score: inf
ROOT
ATOM      1  C   UNL     1      19.355   0.820  15.879  1.00  0.00    -0.041 A 
ATOM      2  C   UNL     1      19.631   1.088  14.558  1.00  0.00     0.007 A 
ATOM      3  C   UNL     1      18.941   0.491  13.521  1.00  0.00     0.040 A 
ATOM      4  C   UNL     1      17.934  -0.406  13.810  1.00  0.00     0.135 A 
ATOM      5  C   UNL     1      17.634  -0.695  15.122  1.00  0.00     0.076 A 
ATOM      6  C   UNL     1      18.346  -0.080  16.149  1.00  0.00     0.021 A 
ATOM      7  F   UNL     1      17.284  -0.965  12.756  1.00  0.00    -0.206 F 
ENDROOT
BRANCH   1   8
ATOM      8  C   UNL     1      20.124   1.486  16.930  1.00  0.00     0.094 C 
BRANCH   8   9
ATOM      9  C   UNL     1      19.317   1.885  18.097  1.00  0.00     0.073 A 
ATOM     10  C   UNL     1      22.048   2.604  20.468  1.00  0.00     0.001 A 
ATOM     11  C   UNL     1      21.332   2.985  21.581  1.00  0.00     0.001 A 
ATOM     12  C   UNL     1      21.369   2.243  19.322  1.00  0.00     0.011 A 
ATOM     13  C   UNL     1      19.970   2.991  21.511  1.00  0.00     0.014 A 
ATOM     14  C   UNL     1      19.990   2.247  19.246  1.00  0.00     0.011 A 
ATOM     15  C   UNL     1      19.298   2.632  20.375  1.00  0.00     0.050 A 
ATOM     16  C   UNL     1      17.911   2.657  20.361  1.00  0.00     0.272 A 
ATOM     17  N   UNL     1      17.984   1.923  18.130  1.00  0.00    -0.177 NA
ATOM     18  N   UNL     1      17.309   2.292  19.212  1.00  0.00    -0.243 N 
ATOM     19  O   UNL     1      17.266   3.007  21.388  1.00  0.00    -0.267 OA
ATOM     20  H   UNL     1      16.257   2.319  19.224  1.00  0.00     0.194 HD
ENDBRANCH   8   9
ENDBRANCH   1   8
BRANCH   5  21
ATOM     21  C   UNL     1      16.566  -1.647  15.389  1.00  0.00     0.256 C 
ATOM     22  O   UNL     1      15.404  -1.157  15.488  1.00  0.00    -0.269 OA
ATOM     23  N   UNL     1      16.814  -3.038  15.527  1.00  0.00    -0.335 N 
ATOM     24  C   UNL     1      15.712  -3.935  15.792  1.00  0.00     0.141 C 
ATOM     25  C   UNL     1      18.134  -3.611  15.416  1.00  0.00     0.141 C 
ATOM     26  C   UNL     1      15.624  -4.873  14.592  1.00  0.00     0.141 C 
ATOM     27  C   UNL     1      18.104  -5.073  15.106  1.00  0.00     0.141 C 
ATOM     28  N   UNL     1      16.916  -5.469  14.375  1.00  0.00    -0.339 N 
ATOM     29  C   UNL     1      17.045  -6.490  13.406  1.00  0.00     0.225 C 
ATOM     30  O   UNL     1      18.163  -7.034  13.190  1.00  0.00    -0.275 OA
BRANCH  29  31
ATOM     31  C   UNL     1      15.831  -6.909  12.645  1.00  0.00     0.079 C 
ATOM     32  C   UNL     1      16.102  -7.397  11.246  1.00  0.00     0.014 C 
ATOM     33  C   UNL     1      15.437  -6.096  11.454  1.00  0.00     0.014 C 
ENDBRANCH  29  31
ENDBRANCH   5  21
TORSDOF 4
ENDMDL
MODEL 3
REMARK VINA RESULT:   -12.412      1.950      2.620
REMARK INTER + INTRA:         -15.316
REMARK INTER:                 -15.821
REMARK INTRA:                   0.505
REMARK UNBOUND:                -0.002
REMARK SMILES O=C(c1cc(Cc2n[nH]c(=O)c3ccccc23)ccc1F)N1CCN(C(=O)C2CC2)CC1
REMARK SMILES IDX 5 1 18 2 19 3 20 4 3 5 4 6 21 7 6 8 7 9 15 10 14 11 16 12
REMARK SMILES IDX 13 13 17 14 12 15 10 16 8 17 9 18 11 19 2 21 1 22 22 23
REMARK SMILES IDX 23 24 32 25 24 26 31 27 25 28 26 29 27 30 28 31 29 32 30 33
REMARK H PARENT 9 20
REMARK Flexibility Score: inf
ROOT
ATOM      1  C   UNL     1      20.959   0.112  17.375  1.00  0.00    -0.041 A 
ATOM      2  C   UNL     1      22.199  -0.365  17.017  1.00  0.00     0.007 A 
ATOM      3  C   UNL     1      22.486  -1.715  16.959  1.00  0.00     0.040 A 
ATOM      4  C   UNL     1      21.498  -2.627  17.268  1.00  0.00     0.135 A 
ATOM      5  C   UNL     1      20.247  -2.182  17.629  1.00  0.00     0.076 A 
ATOM      6  C   UNL     1      19.984  -0.814  17.680  1.00  0.00     0.021 A 
ATOM      7  F   UNL     1      21.829  -3.943  17.195  1.00  0.00    -0.206 F 
ENDROOT
BRANCH   1   8
ATOM      8  C   UNL     1      20.721   1.555  17.416  1.00  0.00     0.094 C 
BRANCH   8   9
ATOM      9  C   UNL     1      19.573   1.944  18.253  1.00  0.00     0.073 A 
ATOM     10  C   UNL     1      21.378   2.759  21.364  1.00  0.00     0.001 A 
ATOM     11  C   UNL     1      20.333   3.132  22.180  1.00  0.00     0.001 A 
ATOM     12  C   UNL     1      21.113   2.369  20.067  1.00  0.00     0.011 A 
ATOM     13  C   UNL     1      19.067   3.102  21.675  1.00  0.00     0.014 A 
ATOM     14  C   UNL     1      19.832   2.336  19.551  1.00  0.00     0.011 A 
ATOM     15  C   UNL     1      18.805   2.714  20.391  1.00  0.00     0.050 A 
ATOM     16  C   UNL     1      17.495   2.703  19.930  1.00  0.00     0.272 A 
ATOM     17  N   UNL     1      18.299   1.949  17.855  1.00  0.00    -0.177 NA
ATOM     18  N   UNL     1      17.304   2.311  18.656  1.00  0.00    -0.243 N 
ATOM     19  O   UNL     1      16.547   3.047  20.688  1.00  0.00    -0.267 OA
ATOM     20  H   UNL     1      16.304   2.310  18.328  1.00  0.00     0.194 HD
ENDBRANCH   8   9
ENDBRANCH   1   8
BRANCH   5  21
ATOM     21  C   UNL     1      19.230  -3.173  17.949  1.00  0.00     0.256 C 
ATOM     22  O   UNL     1      18.710  -3.075  19.098  1.00  0.00    -0.269 OA
ATOM     23  N   UNL     1      18.847  -4.182  17.028  1.00  0.00    -0.335 N 
ATOM     24  C   UNL     1      17.830  -5.139  17.403  1.00  0.00     0.141 C 
ATOM     25  C   UNL     1      19.432  -4.305  15.714  1.00  0.00     0.141 C 
ATOM     26  C   UNL     1      16.664  -4.925  16.442  1.00  0.00     0.141 C 
ATOM     27  C   UNL     1      18.571  -5.080  14.770  1.00  0.00     0.141 C 
ATOM     28  N   UNL     1      17.160  -4.992  15.092  1.00  0.00    -0.339 N 
ATOM     29  C   UNL     1      16.236  -4.970  14.023  1.00  0.00     0.225 C 
ATOM     30  O   UNL     1      16.637  -5.026  12.827  1.00  0.00    -0.275 OA
BRANCH  29  31
ATOM     31  C   UNL     1      14.780  -4.879  14.338  1.00  0.00     0.079 C 
ATOM     32  C   UNL     1      14.029  -3.838  13.551  1.00  0.00     0.014 C 
ATOM     33  C   UNL     1      14.282  -3.630  14.991  1.00  0.00     0.014 C 
ENDBRANCH  29  31
ENDBRANCH   5  21
TORSDOF 4
ENDMDL
MODEL 4
REMARK VINA RESULT:   -12.268      1.750      2.143
REMARK INTER + INTRA:         -15.139
REMARK INTER:                 -15.677
REMARK INTRA:                   0.538
REMARK UNBOUND:                -0.002
REMARK SMILES O=C(c1cc(Cc2n[nH]c(=O)c3ccccc23)ccc1F)N1CCN(C(=O)C2CC2)CC1
REMARK SMILES IDX 5 1 18 2 19 3 20 4 3 5 4 6 21 7 6 8 7 9 15 10 14 11 16 12
REMARK SMILES IDX 13 13 17 14 12 15 10 16 8 17 9 18 11 19 2 21 1 22 22 23
REMARK SMILES IDX 23 24 32 25 24 26 31 27 25 28 26 29 27 30 28 31 29 32 30 33
REMARK H PARENT 9 20
REMARK Flexibility Score: inf
ROOT
ATOM      1  C   UNL     1      21.679   0.728  17.393  1.00  0.00    -0.041 A 
ATOM      2  C   UNL     1      22.516  -0.355  17.534  1.00  0.00     0.007 A 
ATOM      3  C   UNL     1      22.572  -1.373  16.601  1.00  0.00     0.040 A 
ATOM      4  C   UNL     1      21.765  -1.310  15.485  1.00  0.00     0.135 A 
ATOM      5  C   UNL     1      20.917  -0.239  15.316  1.00  0.00     0.076 A 
ATOM      6  C   UNL     1      20.879   0.775  16.272  1.00  0.00     0.021 A 
ATOM      7  F   UNL     1      21.857  -2.335  14.597  1.00  0.00    -0.206 F 
ENDROOT
BRANCH   1   8
ATOM      8  C   UNL     1      21.668   1.773  18.418  1.00  0.00     0.094 C 
BRANCH   8   9
ATOM      9  C   UNL     1      20.331   2.052  18.968  1.00  0.00     0.073 A 
ATOM     10  C   UNL     1      21.321   3.205  22.328  1.00  0.00     0.001 A 
ATOM     11  C   UNL     1      20.090   3.480  22.882  1.00  0.00     0.001 A 
ATOM     12  C   UNL     1      21.387   2.734  21.033  1.00  0.00     0.011 A 
ATOM     13  C   UNL     1      18.974   3.274  22.126  1.00  0.00     0.014 A 
ATOM     14  C   UNL     1      20.259   2.524  20.264  1.00  0.00     0.011 A 
ATOM     15  C   UNL     1      19.039   2.807  20.843  1.00  0.00     0.050 A 
ATOM     16  C   UNL     1      17.870   2.617  20.120  1.00  0.00     0.272 A 
ATOM     17  N   UNL     1      19.181   1.885  18.313  1.00  0.00    -0.177 NA
ATOM     18  N   UNL     1      18.002   2.154  18.862  1.00  0.00    -0.243 N 
ATOM     19  O   UNL     1      16.748   2.872  20.639  1.00  0.00    -0.267 OA
ATOM     20  H   UNL     1      17.103   2.018  18.333  1.00  0.00     0.194 HD
ENDBRANCH   8   9
ENDBRANCH   1   8
BRANCH   5  21
ATOM     21  C   UNL     1      20.080  -0.205  14.126  1.00  0.00     0.256 C 
ATOM     22  O   UNL     1      20.687  -0.328  13.023  1.00  0.00    -0.269 OA
ATOM     23  N   UNL     1      18.672  -0.047  14.201  1.00  0.00    -0.335 N 
ATOM     24  C   UNL     1      17.892  -0.022  12.984  1.00  0.00     0.141 C 
ATOM     25  C   UNL     1      17.966   0.094  15.452  1.00  0.00     0.141 C 
ATOM     26  C   UNL     1      16.966  -1.234  13.041  1.00  0.00     0.141 C 
ATOM     27  C   UNL     1      16.514  -0.243  15.337  1.00  0.00     0.141 C 
ATOM     28  N   UNL     1      16.241  -1.202  14.284  1.00  0.00    -0.339 N 
ATOM     29  C   UNL     1      15.211  -2.146  14.499  1.00  0.00     0.225 C 
ATOM     30  O   UNL     1      14.555  -2.146  15.578  1.00  0.00    -0.275 OA
BRANCH  29  31
ATOM     31  C   UNL     1      14.917  -3.139  13.425  1.00  0.00     0.079 C 
ATOM     32  C   UNL     1      14.429  -4.475  13.919  1.00  0.00     0.014 C 
ATOM     33  C   UNL     1      15.783  -4.355  13.341  1.00  0.00     0.014 C 
ENDBRANCH  29  31
ENDBRANCH   5  21
TORSDOF 4
ENDMDL
MODEL 5
REMARK VINA RESULT:   -11.756      3.142      4.346
REMARK INTER + INTRA:         -14.507
REMARK INTER:                 -14.030
REMARK INTRA:                  -0.477
REMARK UNBOUND:                -0.002
REMARK SMILES O=C(c1cc(Cc2n[nH]c(=O)c3ccccc23)ccc1F)N1CCN(C(=O)C2CC2)CC1
REMARK SMILES IDX 5 1 18 2 19 3 20 4 3 5 4 6 21 7 6 8 7 9 15 10 14 11 16 12
REMARK SMILES IDX 13 13 17 14 12 15 10 16 8 17 9 18 11 19 2 21 1 22 22 23
REMARK SMILES IDX 23 24 32 25 24 26 31 27 25 28 26 29 27 30 28 31 29 32 30 33
REMARK H PARENT 9 20
REMARK Flexibility Score: inf
ROOT
ATOM      1  C   UNL     1      18.457  -1.163  15.905  1.00  0.00    -0.041 A 
ATOM      2  C   UNL     1      18.875  -0.238  14.977  1.00  0.00     0.007 A 
ATOM      3  C   UNL     1      18.334  -0.165  13.707  1.00  0.00     0.040 A 
ATOM      4  C   UNL     1      17.336  -1.048  13.349  1.00  0.00     0.135 A 
ATOM      5  C   UNL     1      16.896  -1.985  14.256  1.00  0.00     0.076 A 
ATOM      6  C   UNL     1      17.459  -2.037  15.530  1.00  0.00     0.021 A 
ATOM      7  F   UNL     1      16.836  -0.936  12.090  1.00  0.00    -0.206 F 
ENDROOT
BRANCH   1   8
ATOM      8  C   UNL     1      19.071  -1.187  17.233  1.00  0.00     0.094 C 
BRANCH   8   9
ATOM      9  C   UNL     1      20.541  -1.087  17.210  1.00  0.00     0.073 A 
ATOM     10  C   UNL     1      20.927   2.141  18.950  1.00  0.00     0.001 A 
ATOM     11  C   UNL     1      22.298   2.273  18.951  1.00  0.00     0.001 A 
ATOM     12  C   UNL     1      20.359   1.024  18.372  1.00  0.00     0.011 A 
ATOM     13  C   UNL     1      23.049   1.291  18.376  1.00  0.00     0.014 A 
ATOM     14  C   UNL     1      21.115   0.027  17.787  1.00  0.00     0.011 A 
ATOM     15  C   UNL     1      22.485   0.186  17.802  1.00  0.00     0.050 A 
ATOM     16  C   UNL     1      23.300  -0.782  17.231  1.00  0.00     0.272 A 
ATOM     17  N   UNL     1      21.363  -1.991  16.673  1.00  0.00    -0.177 NA
ATOM     18  N   UNL     1      22.683  -1.847  16.682  1.00  0.00    -0.243 N 
ATOM     19  O   UNL     1      24.554  -0.650  17.238  1.00  0.00    -0.267 OA
ATOM     20  H   UNL     1      23.319  -2.568  16.255  1.00  0.00     0.194 HD
ENDBRANCH   8   9
ENDBRANCH   1   8
BRANCH   5  21
ATOM     21  C   UNL     1      15.842  -2.900  13.843  1.00  0.00     0.256 C 
ATOM     22  O   UNL     1      14.749  -2.361  13.503  1.00  0.00    -0.269 OA
ATOM     23  N   UNL     1      16.032  -4.306  13.821  1.00  0.00    -0.335 N 
ATOM     24  C   UNL     1      14.948  -5.164  13.400  1.00  0.00     0.141 C 
ATOM     25  C   UNL     1      17.274  -4.934  14.205  1.00  0.00     0.141 C 
ATOM     26  C   UNL     1      15.426  -5.874  12.137  1.00  0.00     0.141 C 
ATOM     27  C   UNL     1      17.417  -6.315  13.653  1.00  0.00     0.141 C 
ATOM     28  N   UNL     1      16.691  -6.504  12.412  1.00  0.00    -0.339 N 
ATOM     29  C   UNL     1      17.262  -7.348  11.433  1.00  0.00     0.225 C 
ATOM     30  O   UNL     1      18.370  -7.916  11.641  1.00  0.00    -0.275 OA
BRANCH  29  31
ATOM     31  C   UNL     1      16.527  -7.552  10.150  1.00  0.00     0.079 C 
ATOM     32  C   UNL     1      15.763  -8.847  10.061  1.00  0.00     0.014 C 
ATOM     33  C   UNL     1      16.983  -8.656   9.251  1.00  0.00     0.014 C 
ENDBRANCH  29  31
ENDBRANCH   5  21
TORSDOF 4
ENDMDL
MODEL 6
REMARK VINA RESULT:   -11.729      2.253      2.977
REMARK INTER + INTRA:         -14.474
REMARK INTER:                 -14.914
REMARK INTRA:                   0.440
REMARK UNBOUND:                -0.002
REMARK SMILES O=C(c1cc(Cc2n[nH]c(=O)c3ccccc23)ccc1F)N1CCN(C(=O)C2CC2)CC1
REMARK SMILES IDX 5 1 18 2 19 3 20 4 3 5 4 6 21 7 6 8 7 9 15 10 14 11 16 12
REMARK SMILES IDX 13 13 17 14 12 15 10 16 8 17 9 18 11 19 2 21 1 22 22 23
REMARK SMILES IDX 23 24 32 25 24 26 31 27 25 28 26 29 27 30 28 31 29 32 30 33
REMARK H PARENT 9 20
REMARK Flexibility Score: inf
ROOT
ATOM      1  C   UNL     1      22.127   0.932  17.115  1.00  0.00    -0.041 A 
ATOM      2  C   UNL     1      22.514  -0.281  17.636  1.00  0.00     0.007 A 
ATOM      3  C   UNL     1      22.147  -1.485  17.064  1.00  0.00     0.040 A 
ATOM      4  C   UNL     1      21.364  -1.479  15.929  1.00  0.00     0.135 A 
ATOM      5  C   UNL     1      20.960  -0.281  15.384  1.00  0.00     0.076 A 
ATOM      6  C   UNL     1      21.344   0.918  15.981  1.00  0.00     0.021 A 
ATOM      7  F   UNL     1      21.029  -2.687  15.404  1.00  0.00    -0.206 F 
ENDROOT
BRANCH   1   8
ATOM      8  C   UNL     1      22.551   2.170  17.770  1.00  0.00     0.094 C 
BRANCH   8   9
ATOM      9  C   UNL     1      22.017   2.335  19.133  1.00  0.00     0.073 A 
ATOM     10  C   UNL     1      18.422   1.995  18.387  1.00  0.00     0.001 A 
ATOM     11  C   UNL     1      17.880   2.144  19.645  1.00  0.00     0.001 A 
ATOM     12  C   UNL     1      19.791   2.060  18.232  1.00  0.00     0.011 A 
ATOM     13  C   UNL     1      18.722   2.352  20.697  1.00  0.00     0.014 A 
ATOM     14  C   UNL     1      20.648   2.271  19.295  1.00  0.00     0.011 A 
ATOM     15  C   UNL     1      20.079   2.417  20.543  1.00  0.00     0.050 A 
ATOM     16  C   UNL     1      20.887   2.631  21.651  1.00  0.00     0.272 A 
ATOM     17  N   UNL     1      22.754   2.543  20.226  1.00  0.00    -0.177 NA
ATOM     18  N   UNL     1      22.215   2.684  21.431  1.00  0.00    -0.243 N 
ATOM     19  O   UNL     1      20.379   2.765  22.798  1.00  0.00    -0.267 OA
ATOM     20  H   UNL     1      22.809   2.847  22.285  1.00  0.00     0.194 HD
ENDBRANCH   8   9
ENDBRANCH   1   8
BRANCH   5  21
ATOM     21  C   UNL     1      20.134  -0.314  14.186  1.00  0.00     0.256 C 
ATOM     22  O   UNL     1      20.750  -0.517  13.100  1.00  0.00    -0.269 OA
ATOM     23  N   UNL     1      18.728  -0.131  14.236  1.00  0.00    -0.335 N 
ATOM     24  C   UNL     1      17.960  -0.175  13.012  1.00  0.00     0.141 C 
ATOM     25  C   UNL     1      18.013   0.101  15.468  1.00  0.00     0.141 C 
ATOM     26  C   UNL     1      17.016  -1.367  13.139  1.00  0.00     0.141 C 
ATOM     27  C   UNL     1      16.558  -0.223  15.361  1.00  0.00     0.141 C 
ATOM     28  N   UNL     1      16.280  -1.244  14.370  1.00  0.00    -0.339 N 
ATOM     29  C   UNL     1      15.234  -2.157  14.635  1.00  0.00     0.225 C 
ATOM     30  O   UNL     1      14.568  -2.078  15.705  1.00  0.00    -0.275 OA
BRANCH  29  31
ATOM     31  C   UNL     1      14.936  -3.215  13.625  1.00  0.00     0.079 C 
ATOM     32  C   UNL     1      14.280  -4.450  14.181  1.00  0.00     0.014 C 
ATOM     33  C   UNL     1      15.682  -4.506  13.723  1.00  0.00     0.014 C 
ENDBRANCH  29  31
ENDBRANCH   5  21
TORSDOF 4
ENDMDL
MODEL 7
REMARK VINA RESULT:   -11.517      2.648      3.533
REMARK INTER + INTRA:         -14.212
REMARK INTER:                 -13.988
REMARK INTRA:                  -0.224
REMARK UNBOUND:                -0.002
REMARK SMILES O=C(c1cc(Cc2n[nH]c(=O)c3ccccc23)ccc1F)N1CCN(C(=O)C2CC2)CC1
REMARK SMILES IDX 5 1 18 2 19 3 20 4 3 5 4 6 21 7 6 8 7 9 15 10 14 11 16 12
REMARK SMILES IDX 13 13 17 14 12 15 10 16 8 17 9 18 11 19 2 21 1 22 22 23
REMARK SMILES IDX 23 24 32 25 24 26 31 27 25 28 26 29 27 30 28 31 29 32 30 33
REMARK H PARENT 9 20
REMARK Flexibility Score: inf
ROOT
ATOM      1  C   UNL     1      17.622   0.589  15.352  1.00  0.00    -0.041 A 
ATOM      2  C   UNL     1      18.206   0.919  14.151  1.00  0.00     0.007 A 
ATOM      3  C   UNL     1      17.954   0.219  12.986  1.00  0.00     0.040 A 
ATOM      4  C   UNL     1      17.084  -0.851  13.019  1.00  0.00     0.135 A 
ATOM      5  C   UNL     1      16.482  -1.206  14.205  1.00  0.00     0.076 A 
ATOM      6  C   UNL     1      16.755  -0.483  15.365  1.00  0.00     0.021 A 
ATOM      7  F   UNL     1      16.867  -1.507  11.849  1.00  0.00    -0.206 F 
ENDROOT
BRANCH   1   8
ATOM      8  C   UNL     1      17.932   1.372  16.548  1.00  0.00     0.094 C 
BRANCH   8   9
ATOM      9  C   UNL     1      19.363   1.379  16.899  1.00  0.00     0.073 A 
ATOM     10  C   UNL     1      19.104   2.678  20.341  1.00  0.00     0.001 A 
ATOM     11  C   UNL     1      20.431   2.701  20.710  1.00  0.00     0.001 A 
ATOM     12  C   UNL     1      18.764   2.238  19.078  1.00  0.00     0.011 A 
ATOM     13  C   UNL     1      21.366   2.286  19.810  1.00  0.00     0.014 A 
ATOM     14  C   UNL     1      19.709   1.818  18.162  1.00  0.00     0.011 A 
ATOM     15  C   UNL     1      21.030   1.851  18.558  1.00  0.00     0.050 A 
ATOM     16  C   UNL     1      22.025   1.440  17.682  1.00  0.00     0.272 A 
ATOM     17  N   UNL     1      20.354   0.994  16.092  1.00  0.00    -0.177 NA
ATOM     18  N   UNL     1      21.627   1.023  16.465  1.00  0.00    -0.243 N 
ATOM     19  O   UNL     1      23.237   1.465  18.033  1.00  0.00    -0.267 OA
ATOM     20  H   UNL     1      22.398   0.716  15.817  1.00  0.00     0.194 HD
ENDBRANCH   8   9
ENDBRANCH   1   8
BRANCH   5  21
ATOM     21  C   UNL     1      15.571  -2.340  14.202  1.00  0.00     0.256 C 
ATOM     22  O   UNL     1      14.371  -2.080  13.894  1.00  0.00    -0.269 OA
ATOM     23  N   UNL     1      16.002  -3.653  14.523  1.00  0.00    -0.335 N 
ATOM     24  C   UNL     1      15.049  -4.740  14.503  1.00  0.00     0.141 C 
ATOM     25  C   UNL     1      17.366  -3.964  14.877  1.00  0.00     0.141 C 
ATOM     26  C   UNL     1      15.517  -5.702  13.414  1.00  0.00     0.141 C 
ATOM     27  C   UNL     1      17.695  -5.410  14.692  1.00  0.00     0.141 C 
ATOM     28  N   UNL     1      16.894  -6.042  13.661  1.00  0.00    -0.339 N 
ATOM     29  C   UNL     1      17.505  -7.039  12.866  1.00  0.00     0.225 C 
ATOM     30  O   UNL     1      18.711  -7.362  13.055  1.00  0.00    -0.275 OA
BRANCH  29  31
ATOM     31  C   UNL     1      16.695  -7.699  11.801  1.00  0.00     0.079 C 
ATOM     32  C   UNL     1      16.279  -9.113  12.111  1.00  0.00     0.014 C 
ATOM     33  C   UNL     1      17.301  -8.858  11.077  1.00  0.00     0.014 C 
ENDBRANCH  29  31
ENDBRANCH   5  21
TORSDOF 4
ENDMDL
MODEL 8
REMARK VINA RESULT:   -11.498      3.974      4.941
REMARK INTER + INTRA:         -14.189
REMARK INTER:                 -13.684
REMARK INTRA:                  -0.505
REMARK UNBOUND:                -0.002
REMARK SMILES O=C(c1cc(Cc2n[nH]c(=O)c3ccccc23)ccc1F)N1CCN(C(=O)C2CC2)CC1
REMARK SMILES IDX 5 1 18 2 19 3 20 4 3 5 4 6 21 7 6 8 7 9 15 10 14 11 16 12
REMARK SMILES IDX 13 13 17 14 12 15 10 16 8 17 9 18 11 19 2 21 1 22 22 23
REMARK SMILES IDX 23 24 32 25 24 26 31 27 25 28 26 29 27 30 28 31 29 32 30 33
REMARK H PARENT 9 20
REMARK Flexibility Score: inf
ROOT
ATOM      1  C   UNL     1      20.409   0.364  14.017  1.00  0.00    -0.041 A 
ATOM      2  C   UNL     1      20.198   1.309  14.994  1.00  0.00     0.007 A 
ATOM      3  C   UNL     1      18.953   1.533  15.552  1.00  0.00     0.040 A 
ATOM      4  C   UNL     1      17.877   0.786  15.120  1.00  0.00     0.135 A 
ATOM      5  C   UNL     1      18.057  -0.167  14.144  1.00  0.00     0.076 A 
ATOM      6  C   UNL     1      19.322  -0.373  13.597  1.00  0.00     0.021 A 
ATOM      7  F   UNL     1      16.675   1.043  15.699  1.00  0.00    -0.206 F 
ENDROOT
BRANCH   1   8
ATOM      8  C   UNL     1      21.752   0.177  13.468  1.00  0.00     0.094 C 
BRANCH   8   9
ATOM      9  C   UNL     1      22.768   1.060  14.067  1.00  0.00     0.073 A 
ATOM     10  C   UNL     1      23.887  -1.129  16.815  1.00  0.00     0.001 A 
ATOM     11  C   UNL     1      24.845  -0.335  17.406  1.00  0.00     0.001 A 
ATOM     12  C   UNL     1      23.207  -0.656  15.712  1.00  0.00     0.011 A 
ATOM     13  C   UNL     1      25.089   0.897  16.876  1.00  0.00     0.014 A 
ATOM     14  C   UNL     1      23.451   0.592  15.171  1.00  0.00     0.011 A 
ATOM     15  C   UNL     1      24.416   1.366  15.783  1.00  0.00     0.050 A 
ATOM     16  C   UNL     1      24.706   2.629  15.286  1.00  0.00     0.272 A 
ATOM     17  N   UNL     1      23.080   2.280  13.625  1.00  0.00    -0.177 NA
ATOM     18  N   UNL     1      24.007   3.032  14.207  1.00  0.00    -0.243 N 
ATOM     19  O   UNL     1      25.586   3.347  15.836  1.00  0.00    -0.267 OA
ATOM     20  H   UNL     1      24.244   3.992  13.848  1.00  0.00     0.194 HD
ENDBRANCH   8   9
ENDBRANCH   1   8
BRANCH   5  21
ATOM     21  C   UNL     1      16.899  -0.936  13.712  1.00  0.00     0.256 C 
ATOM     22  O   UNL     1      16.150  -0.372  12.863  1.00  0.00    -0.269 OA
ATOM     23  N   UNL     1      16.630  -2.236  14.212  1.00  0.00    -0.335 N 
ATOM     24  C   UNL     1      15.464  -2.952  13.745  1.00  0.00     0.141 C 
ATOM     25  C   UNL     1      17.476  -2.892  15.181  1.00  0.00     0.141 C 
ATOM     26  C   UNL     1      15.981  -4.194  13.025  1.00  0.00     0.141 C 
ATOM     27  C   UNL     1      17.299  -4.377  15.190  1.00  0.00     0.141 C 
ATOM     28  N   UNL     1      16.873  -4.900  13.907  1.00  0.00    -0.339 N 
ATOM     29  C   UNL     1      17.363  -6.166  13.512  1.00  0.00     0.225 C 
ATOM     30  O   UNL     1      18.148  -6.813  14.260  1.00  0.00    -0.275 OA
BRANCH  29  31
ATOM     31  C   UNL     1      16.934  -6.719  12.194  1.00  0.00     0.079 C 
ATOM     32  C   UNL     1      16.204  -8.035  12.271  1.00  0.00     0.014 C 
ATOM     33  C   UNL     1      17.575  -7.985  11.724  1.00  0.00     0.014 C 
ENDBRANCH  29  31
ENDBRANCH   5  21
TORSDOF 4
ENDMDL
MODEL 9
REMARK VINA RESULT:   -11.336      3.089      4.027
REMARK INTER + INTRA:         -13.988
REMARK INTER:                 -13.872
REMARK INTRA:                  -0.117
REMARK UNBOUND:                -0.002
REMARK SMILES O=C(c1cc(Cc2n[nH]c(=O)c3ccccc23)ccc1F)N1CCN(C(=O)C2CC2)CC1
REMARK SMILES IDX 5 1 18 2 19 3 20 4 3 5 4 6 21 7 6 8 7 9 15 10 14 11 16 12
REMARK SMILES IDX 13 13 17 14 12 15 10 16 8 17 9 18 11 19 2 21 1 22 22 23
REMARK SMILES IDX 23 24 32 25 24 26 31 27 25 28 26 29 27 30 28 31 29 32 30 33
REMARK H PARENT 9 20
REMARK Flexibility Score: inf
ROOT
ATOM      1  C   UNL     1      18.141  -0.205  16.343  1.00  0.00    -0.041 A 
ATOM      2  C   UNL     1      17.884   1.146  16.286  1.00  0.00     0.007 A 
ATOM      3  C   UNL     1      17.225   1.730  15.221  1.00  0.00     0.040 A 
ATOM      4  C   UNL     1      16.804   0.938  14.172  1.00  0.00     0.135 A 
ATOM      5  C   UNL     1      17.046  -0.417  14.201  1.00  0.00     0.076 A 
ATOM      6  C   UNL     1      17.713  -0.981  15.287  1.00  0.00     0.021 A 
ATOM      7  F   UNL     1      16.161   1.559  13.149  1.00  0.00    -0.206 F 
ENDROOT
BRANCH   1   8
ATOM      8  C   UNL     1      18.843  -0.760  17.500  1.00  0.00     0.094 C 
BRANCH   8   9
ATOM      9  C   UNL     1      20.296  -0.901  17.303  1.00  0.00     0.073 A 
ATOM     10  C   UNL     1      21.404   2.203  18.957  1.00  0.00     0.001 A 
ATOM     11  C   UNL     1      22.769   2.111  18.795  1.00  0.00     0.001 A 
ATOM     12  C   UNL     1      20.598   1.200  18.459  1.00  0.00     0.011 A 
ATOM     13  C   UNL     1      23.277   1.027  18.144  1.00  0.00     0.014 A 
ATOM     14  C   UNL     1      21.108   0.100  17.799  1.00  0.00     0.011 A 
ATOM     15  C   UNL     1      22.478   0.033  17.651  1.00  0.00     0.050 A 
ATOM     16  C   UNL     1      23.051  -1.048  16.996  1.00  0.00     0.272 A 
ATOM     17  N   UNL     1      20.892  -1.920  16.681  1.00  0.00    -0.177 NA
ATOM     18  N   UNL     1      22.209  -1.993  16.533  1.00  0.00    -0.243 N 
ATOM     19  O   UNL     1      24.302  -1.121  16.854  1.00  0.00    -0.267 OA
ATOM     20  H   UNL     1      22.665  -2.803  16.041  1.00  0.00     0.194 HD
ENDBRANCH   8   9
ENDBRANCH   1   8
BRANCH   5  21
ATOM     21  C   UNL     1      16.589  -1.221  13.078  1.00  0.00     0.256 C 
ATOM     22  O   UNL     1      17.050  -0.896  11.946  1.00  0.00    -0.269 OA
ATOM     23  N   UNL     1      15.683  -2.301  13.245  1.00  0.00    -0.335 N 
ATOM     24  C   UNL     1      15.265  -3.064  12.090  1.00  0.00     0.141 C 
ATOM     25  C   UNL     1      15.149  -2.682  14.530  1.00  0.00     0.141 C 
ATOM     26  C   UNL     1      15.771  -4.487  12.309  1.00  0.00     0.141 C 
ATOM     27  C   UNL     1      14.640  -4.087  14.550  1.00  0.00     0.141 C 
ATOM     28  N   UNL     1      15.317  -4.945  13.597  1.00  0.00    -0.339 N 
ATOM     29  C   UNL     1      15.538  -6.293  13.959  1.00  0.00     0.225 C 
ATOM     30  O   UNL     1      15.154  -6.728  15.080  1.00  0.00    -0.275 OA
BRANCH  29  31
ATOM     31  C   UNL     1      16.234  -7.189  12.989  1.00  0.00     0.079 C 
ATOM     32  C   UNL     1      16.934  -8.368  13.612  1.00  0.00     0.014 C 
ATOM     33  C   UNL     1      17.726  -7.258  13.047  1.00  0.00     0.014 C 
ENDBRANCH  29  31
ENDBRANCH   5  21
TORSDOF 4
ENDMDL
MODEL 10
REMARK VINA RESULT:   -11.221      2.062      3.126
REMARK INTER + INTRA:         -13.847
REMARK INTER:                 -13.712
REMARK INTRA:                  -0.135
REMARK UNBOUND:                -0.002
REMARK SMILES O=C(c1cc(Cc2n[nH]c(=O)c3ccccc23)ccc1F)N1CCN(C(=O)C2CC2)CC1
REMARK SMILES IDX 5 1 18 2 19 3 20 4 3 5 4 6 21 7 6 8 7 9 15 10 14 11 16 12
REMARK SMILES IDX 13 13 17 14 12 15 10 16 8 17 9 18 11 19 2 21 1 22 22 23
REMARK SMILES IDX 23 24 32 25 24 26 31 27 25 28 26 29 27 30 28 31 29 32 30 33
REMARK H PARENT 9 20
REMARK Flexibility Score: inf
ROOT
ATOM      1  C   UNL     1      22.426   1.172  17.712  1.00  0.00    -0.041 A 
ATOM      2  C   UNL     1      23.455   1.481  16.853  1.00  0.00     0.007 A 
ATOM      3  C   UNL     1      23.878   0.616  15.862  1.00  0.00     0.040 A 
ATOM      4  C   UNL     1      23.252  -0.605  15.721  1.00  0.00     0.135 A 
ATOM      5  C   UNL     1      22.219  -0.943  16.566  1.00  0.00     0.076 A 
ATOM      6  C   UNL     1      21.812  -0.052  17.557  1.00  0.00     0.021 A 
ATOM      7  F   UNL     1      23.703  -1.421  14.733  1.00  0.00    -0.206 F 
ENDROOT
BRANCH   1   8
ATOM      8  C   UNL     1      22.027   2.134  18.740  1.00  0.00     0.094 C 
BRANCH   8   9
ATOM      9  C   UNL     1      20.577   2.159  19.000  1.00  0.00     0.073 A 
ATOM     10  C   UNL     1      20.640   3.339  22.493  1.00  0.00     0.001 A 
ATOM     11  C   UNL     1      19.293   3.378  22.779  1.00  0.00     0.001 A 
ATOM     12  C   UNL     1      21.051   2.935  21.240  1.00  0.00     0.011 A 
ATOM     13  C   UNL     1      18.410   3.012  21.808  1.00  0.00     0.014 A 
ATOM     14  C   UNL     1      20.159   2.563  20.253  1.00  0.00     0.011 A 
ATOM     15  C   UNL     1      18.817   2.610  20.566  1.00  0.00     0.050 A 
ATOM     16  C   UNL     1      17.872   2.249  19.616  1.00  0.00     0.272 A 
ATOM     17  N   UNL     1      19.633   1.821  18.120  1.00  0.00    -0.177 NA
ATOM     18  N   UNL     1      18.339   1.863  18.412  1.00  0.00    -0.243 N 
ATOM     19  O   UNL     1      16.641   2.289  19.889  1.00  0.00    -0.267 OA
ATOM     20  H   UNL     1      17.605   1.594  17.708  1.00  0.00     0.194 HD
ENDBRANCH   8   9
ENDBRANCH   1   8
BRANCH   5  21
ATOM     21  C   UNL     1      21.581  -2.239  16.389  1.00  0.00     0.256 C 
ATOM     22  O   UNL     1      22.042  -3.180  17.099  1.00  0.00    -0.269 OA
ATOM     23  N   UNL     1      20.510  -2.433  15.478  1.00  0.00    -0.335 N 
ATOM     24  C   UNL     1      19.917  -3.745  15.346  1.00  0.00     0.141 C 
ATOM     25  C   UNL     1      19.975  -1.370  14.663  1.00  0.00     0.141 C 
ATOM     26  C   UNL     1      18.466  -3.608  15.798  1.00  0.00     0.141 C 
ATOM     27  C   UNL     1      18.592  -1.658  14.174  1.00  0.00     0.141 C 
ATOM     28  N   UNL     1      17.852  -2.534  15.061  1.00  0.00    -0.339 N 
ATOM     29  C   UNL     1      16.463  -2.314  15.202  1.00  0.00     0.225 C 
ATOM     30  O   UNL     1      15.893  -1.382  14.571  1.00  0.00    -0.275 OA
BRANCH  29  31
ATOM     31  C   UNL     1      15.688  -3.208  16.112  1.00  0.00     0.079 C 
ATOM     32  C   UNL     1      15.492  -4.611  15.601  1.00  0.00     0.014 C 
ATOM     33  C   UNL     1      14.346  -3.681  15.652  1.00  0.00     0.014 C 
ENDBRANCH  29  31
ENDBRANCH   5  21
TORSDOF 4
ENDMDL
