MODEL 1
REMARK VINA RESULT:   -11.885      0.000      0.000
REMARK INTER + INTRA:         -22.514
REMARK INTER:                 -19.528
REMARK INTRA:                  -2.986
REMARK UNBOUND:                -2.986
REMARK SMILES Cc1cc(OCC(=O)NCCNC(=O)c2cccc(COc3ccccc3C(N)=O)c2)c2c3c(c(=O)oc2c1)CCC3
REMARK SMILES IDX 14 1 13 2 12 3 15 5 16 6 31 7 17 8 19 9 18 10 20 11 21 12
REMARK SMILES IDX 22 13 27 14 23 15 26 16 24 17 25 18 28 19 29 20 30 21 11 24
REMARK SMILES IDX 10 25 9 26 7 27 8 29 6 30 5 31 4 32 3 33 32 34 2 35 38 36
REMARK SMILES IDX 33 37 1 38 39 39 37 40 34 41 42 42 35 43 40 44 41 45 36 46
REMARK H PARENT 12 4 29 22 29 23 9 28
REMARK Flexibility Score: inf
ROOT
ATOM      1  O   UNL     1      16.927  -1.036  11.826  1.00  0.00    -0.269 OA
ATOM      2  C   UNL     1      16.462  -1.034  12.979  1.00  0.00     0.251 C 
ATOM      3  N   UNL     1      16.178   0.150  13.712  1.00  0.00    -0.350 N 
ATOM      4  H   UNL     1      15.781   0.039  14.673  1.00  0.00     0.163 HD
ENDROOT
BRANCH   2   5
ATOM      5  C   UNL     1      16.198  -2.321  13.608  1.00  0.00     0.040 A 
ATOM      6  C   UNL     1      15.789  -3.363  12.801  1.00  0.00     0.014 A 
ATOM      7  C   UNL     1      16.333  -2.537  14.960  1.00  0.00     0.021 A 
ATOM      8  C   UNL     1      15.518  -4.597  13.334  1.00  0.00     0.001 A 
ATOM      9  C   UNL     1      16.068  -3.775  15.539  1.00  0.00    -0.010 A 
ATOM     10  C   UNL     1      15.662  -4.781  14.695  1.00  0.00     0.007 A 
BRANCH   9  11
ATOM     11  C   UNL     1      16.232  -3.915  17.000  1.00  0.00     0.265 C 
BRANCH  11  12
ATOM     12  O   UNL     1      17.488  -4.507  17.293  1.00  0.00    -0.488 OA
BRANCH  12  13
ATOM     13  C   UNL     1      18.660  -3.759  17.273  1.00  0.00     0.132 A 
ATOM     14  C   UNL     1      19.765  -4.219  16.619  1.00  0.00     0.081 A 
ATOM     15  C   UNL     1      18.740  -2.536  17.913  1.00  0.00     0.047 A 
ATOM     16  C   UNL     1      20.920  -3.449  16.617  1.00  0.00     0.018 A 
ATOM     17  C   UNL     1      19.891  -1.776  17.906  1.00  0.00     0.004 A 
ATOM     18  C   UNL     1      21.023  -2.227  17.247  1.00  0.00     0.001 A 
BRANCH  14  19
ATOM     19  C   UNL     1      19.781  -5.495  15.918  1.00  0.00     0.252 C 
ATOM     20  N   UNL     1      19.131  -5.651  14.671  1.00  0.00    -0.365 N 
ATOM     21  O   UNL     1      20.389  -6.487  16.428  1.00  0.00    -0.269 OA
ATOM     22  H   UNL     1      18.105  -5.513  14.600  1.00  0.00     0.159 HD
ATOM     23  H   UNL     1      19.664  -5.901  13.820  1.00  0.00     0.159 HD
ENDBRANCH  14  19
ENDBRANCH  12  13
ENDBRANCH  11  12
ENDBRANCH   9  11
ENDBRANCH   2   5
BRANCH   3  24
ATOM     24  C   UNL     1      16.406   1.460  13.206  1.00  0.00     0.137 C 
BRANCH  24  25
ATOM     25  C   UNL     1      17.304   2.352  13.945  1.00  0.00     0.137 C 
BRANCH  25  26
ATOM     26  N   UNL     1      18.116   1.804  14.991  1.00  0.00    -0.351 N 
ATOM     27  C   UNL     1      19.491   1.544  14.811  1.00  0.00     0.258 C 
ATOM     28  H   UNL     1      17.718   1.573  15.950  1.00  0.00     0.163 HD
ATOM     29  O   UNL     1      19.960   1.796  13.645  1.00  0.00    -0.271 OA
BRANCH  27  30
ATOM     30  C   UNL     1      20.460   1.027  15.786  1.00  0.00     0.329 C 
BRANCH  30  31
ATOM     31  O   UNL     1      20.476   1.493  17.052  1.00  0.00    -0.483 OA
BRANCH  31  32
ATOM     32  C   UNL     1      21.391   1.849  17.941  1.00  0.00     0.131 A 
ATOM     33  C   UNL     1      22.780   1.916  17.732  1.00  0.00     0.050 A 
ATOM     34  C   UNL     1      20.959   2.208  19.240  1.00  0.00     0.063 A 
ATOM     35  C   UNL     1      23.646   2.305  18.721  1.00  0.00    -0.044 A 
ATOM     36  C   UNL     1      21.842   2.593  20.213  1.00  0.00     0.142 A 
ATOM     37  C   UNL     1      19.593   2.153  19.477  1.00  0.00    -0.023 A 
ATOM     38  C   UNL     1      25.100   2.386  18.464  1.00  0.00     0.044 C 
ATOM     39  C   UNL     1      23.210   2.648  19.967  1.00  0.00     0.051 A 
ATOM     40  O   UNL     1      21.395   2.923  21.422  1.00  0.00    -0.422 OA
ATOM     41  C   UNL     1      19.174   2.509  20.759  1.00  0.00     0.042 A 
ATOM     42  C   UNL     1      18.428   1.799  18.678  1.00  0.00     0.037 C 
ATOM     43  C   UNL     1      20.113   2.885  21.692  1.00  0.00     0.339 A 
ATOM     44  C   UNL     1      17.694   2.399  20.850  1.00  0.00     0.044 C 
ATOM     45  C   UNL     1      17.277   2.513  19.408  1.00  0.00     0.010 C 
ATOM     46  O   UNL     1      19.698   3.202  22.851  1.00  0.00    -0.246 OA
ENDBRANCH  31  32
ENDBRANCH  30  31
ENDBRANCH  27  30
ENDBRANCH  25  26
ENDBRANCH  24  25
ENDBRANCH   3  24
TORSDOF 11
ENDMDL
MODEL 2
REMARK VINA RESULT:   -11.738      2.326      4.839
REMARK INTER + INTRA:         -22.272
REMARK INTER:                 -19.527
REMARK INTRA:                  -2.745
REMARK UNBOUND:                -2.986
REMARK SMILES Cc1cc(OCC(=O)NCCNC(=O)c2cccc(COc3ccccc3C(N)=O)c2)c2c3c(c(=O)oc2c1)CCC3
REMARK SMILES IDX 14 1 13 2 12 3 15 5 16 6 31 7 17 8 19 9 18 10 20 11 21 12
REMARK SMILES IDX 22 13 27 14 23 15 26 16 24 17 25 18 28 19 29 20 30 21 11 24
REMARK SMILES IDX 10 25 9 26 7 27 8 29 6 30 5 31 4 32 3 33 32 34 2 35 38 36
REMARK SMILES IDX 33 37 1 38 39 39 37 40 34 41 42 42 35 43 40 44 41 45 36 46
REMARK H PARENT 12 4 29 22 29 23 9 28
REMARK Flexibility Score: inf
ROOT
ATOM      1  O   UNL     1      21.752  -1.320  13.109  1.00  0.00    -0.269 OA
ATOM      2  C   UNL     1      22.047  -1.245  14.314  1.00  0.00     0.251 C 
ATOM      3  N   UNL     1      23.049  -0.378  14.828  1.00  0.00    -0.350 N 
ATOM      4  H   UNL     1      23.212  -0.389  15.861  1.00  0.00     0.163 HD
ENDROOT
BRANCH   2   5
ATOM      5  C   UNL     1      21.323  -2.100  15.244  1.00  0.00     0.040 A 
ATOM      6  C   UNL     1      21.449  -1.840  16.594  1.00  0.00     0.014 A 
ATOM      7  C   UNL     1      20.530  -3.150  14.839  1.00  0.00     0.021 A 
ATOM      8  C   UNL     1      20.798  -2.613  17.521  1.00  0.00     0.001 A 
ATOM      9  C   UNL     1      19.853  -3.957  15.748  1.00  0.00    -0.010 A 
ATOM     10  C   UNL     1      20.012  -3.659  17.080  1.00  0.00     0.007 A 
BRANCH   9  11
ATOM     11  C   UNL     1      19.031  -5.066  15.224  1.00  0.00     0.265 C 
BRANCH  11  12
ATOM     12  O   UNL     1      17.715  -4.986  15.751  1.00  0.00    -0.488 OA
BRANCH  12  13
ATOM     13  C   UNL     1      16.743  -4.197  15.147  1.00  0.00     0.132 A 
ATOM     14  C   UNL     1      15.592  -4.756  14.675  1.00  0.00     0.081 A 
ATOM     15  C   UNL     1      16.914  -2.832  15.007  1.00  0.00     0.047 A 
ATOM     16  C   UNL     1      14.639  -3.941  14.077  1.00  0.00     0.018 A 
ATOM     17  C   UNL     1      15.963  -2.029  14.412  1.00  0.00     0.004 A 
ATOM     18  C   UNL     1      14.788  -2.578  13.927  1.00  0.00     0.001 A 
BRANCH  14  19
ATOM     19  C   UNL     1      15.320  -6.182  14.773  1.00  0.00     0.252 C 
ATOM     20  N   UNL     1      16.217  -7.134  14.234  1.00  0.00    -0.365 N 
ATOM     21  O   UNL     1      14.263  -6.585  15.352  1.00  0.00    -0.269 OA
ATOM     22  H   UNL     1      16.415  -7.142  13.216  1.00  0.00     0.159 HD
ATOM     23  H   UNL     1      16.684  -7.830  14.841  1.00  0.00     0.159 HD
ENDBRANCH  14  19
ENDBRANCH  12  13
ENDBRANCH  11  12
ENDBRANCH   9  11
ENDBRANCH   2   5
BRANCH   3  24
ATOM     24  C   UNL     1      23.826   0.491  14.015  1.00  0.00     0.137 C 
BRANCH  24  25
ATOM     25  C   UNL     1      24.503   1.627  14.648  1.00  0.00     0.137 C 
BRANCH  25  26
ATOM     26  N   UNL     1      23.832   2.332  15.700  1.00  0.00    -0.351 N 
ATOM     27  C   UNL     1      23.874   1.894  17.040  1.00  0.00     0.258 C 
ATOM     28  H   UNL     1      23.275   3.220  15.517  1.00  0.00     0.163 HD
ATOM     29  O   UNL     1      24.522   0.808  17.253  1.00  0.00    -0.271 OA
BRANCH  27  30
ATOM     30  C   UNL     1      23.280   2.520  18.228  1.00  0.00     0.329 C 
BRANCH  30  31
ATOM     31  O   UNL     1      22.064   2.141  18.669  1.00  0.00    -0.483 OA
BRANCH  31  32
ATOM     32  C   UNL     1      20.872   1.910  18.140  1.00  0.00     0.131 A 
ATOM     33  C   UNL     1      20.607   1.476  16.828  1.00  0.00     0.050 A 
ATOM     34  C   UNL     1      19.729   2.105  18.952  1.00  0.00     0.063 A 
ATOM     35  C   UNL     1      19.330   1.259  16.378  1.00  0.00    -0.044 A 
ATOM     36  C   UNL     1      18.463   1.883  18.481  1.00  0.00     0.142 A 
ATOM     37  C   UNL     1      19.958   2.532  20.252  1.00  0.00    -0.023 A 
ATOM     38  C   UNL     1      19.086   0.783  15.000  1.00  0.00     0.044 C 
ATOM     39  C   UNL     1      18.241   1.453  17.177  1.00  0.00     0.051 A 
ATOM     40  O   UNL     1      17.415   2.079  19.277  1.00  0.00    -0.422 OA
ATOM     41  C   UNL     1      18.827   2.722  21.047  1.00  0.00     0.042 A 
ATOM     42  C   UNL     1      21.146   2.845  21.034  1.00  0.00     0.037 C 
ATOM     43  C   UNL     1      17.582   2.482  20.513  1.00  0.00     0.339 A 
ATOM     44  C   UNL     1      19.239   3.176  22.402  1.00  0.00     0.044 C 
ATOM     45  C   UNL     1      20.660   2.683  22.484  1.00  0.00     0.010 C 
ATOM     46  O   UNL     1      16.573   2.667  21.264  1.00  0.00    -0.246 OA
ENDBRANCH  31  32
ENDBRANCH  30  31
ENDBRANCH  27  30
ENDBRANCH  25  26
ENDBRANCH  24  25
ENDBRANCH   3  24
TORSDOF 11
ENDMDL
MODEL 3
REMARK VINA RESULT:   -11.715      1.521      3.112
REMARK INTER + INTRA:         -22.234
REMARK INTER:                 -18.748
REMARK INTRA:                  -3.486
REMARK UNBOUND:                -2.986
REMARK SMILES Cc1cc(OCC(=O)NCCNC(=O)c2cccc(COc3ccccc3C(N)=O)c2)c2c3c(c(=O)oc2c1)CCC3
REMARK SMILES IDX 14 1 13 2 12 3 15 5 16 6 31 7 17 8 19 9 18 10 20 11 21 12
REMARK SMILES IDX 22 13 27 14 23 15 26 16 24 17 25 18 28 19 29 20 30 21 11 24
REMARK SMILES IDX 10 25 9 26 7 27 8 29 6 30 5 31 4 32 3 33 32 34 2 35 38 36
REMARK SMILES IDX 33 37 1 38 39 39 37 40 34 41 42 42 35 43 40 44 41 45 36 46
REMARK H PARENT 12 4 29 22 29 23 9 28
REMARK Flexibility Score: inf
ROOT
ATOM      1  O   UNL     1      15.158  -1.205  13.548  1.00  0.00    -0.269 OA
ATOM      2  C   UNL     1      16.197  -1.881  13.469  1.00  0.00     0.251 C 
ATOM      3  N   UNL     1      17.353  -1.469  12.752  1.00  0.00    -0.350 N 
ATOM      4  H   UNL     1      18.178  -2.112  12.755  1.00  0.00     0.163 HD
ENDROOT
BRANCH   2   5
ATOM      5  C   UNL     1      16.224  -3.168  14.149  1.00  0.00     0.040 A 
ATOM      6  C   UNL     1      16.116  -4.309  13.380  1.00  0.00     0.014 A 
ATOM      7  C   UNL     1      16.344  -3.294  15.514  1.00  0.00     0.021 A 
ATOM      8  C   UNL     1      16.127  -5.551  13.962  1.00  0.00     0.001 A 
ATOM      9  C   UNL     1      16.360  -4.536  16.143  1.00  0.00    -0.010 A 
ATOM     10  C   UNL     1      16.248  -5.641  15.334  1.00  0.00     0.007 A 
BRANCH   9  11
ATOM     11  C   UNL     1      16.485  -4.575  17.614  1.00  0.00     0.265 C 
BRANCH  11  12
ATOM     12  O   UNL     1      17.837  -4.804  17.980  1.00  0.00    -0.488 OA
BRANCH  12  13
ATOM     13  C   UNL     1      18.833  -3.883  17.677  1.00  0.00     0.132 A 
ATOM     14  C   UNL     1      19.834  -4.205  16.809  1.00  0.00     0.081 A 
ATOM     15  C   UNL     1      18.837  -2.621  18.243  1.00  0.00     0.047 A 
ATOM     16  C   UNL     1      20.814  -3.263  16.526  1.00  0.00     0.018 A 
ATOM     17  C   UNL     1      19.814  -1.690  17.956  1.00  0.00     0.004 A 
ATOM     18  C   UNL     1      20.839  -1.999  17.078  1.00  0.00     0.001 A 
BRANCH  14  19
ATOM     19  C   UNL     1      19.918  -5.507  16.163  1.00  0.00     0.252 C 
ATOM     20  N   UNL     1      20.292  -6.660  16.893  1.00  0.00    -0.365 N 
ATOM     21  O   UNL     1      19.650  -5.617  14.926  1.00  0.00    -0.269 OA
ATOM     22  H   UNL     1      21.228  -6.711  17.339  1.00  0.00     0.159 HD
ATOM     23  H   UNL     1      19.645  -7.462  16.992  1.00  0.00     0.159 HD
ENDBRANCH  14  19
ENDBRANCH  12  13
ENDBRANCH  11  12
ENDBRANCH   9  11
ENDBRANCH   2   5
BRANCH   3  24
ATOM     24  C   UNL     1      17.438  -0.240  12.041  1.00  0.00     0.137 C 
BRANCH  24  25
ATOM     25  C   UNL     1      18.214   0.857  12.627  1.00  0.00     0.137 C 
BRANCH  25  26
ATOM     26  N   UNL     1      18.467   0.848  14.037  1.00  0.00    -0.351 N 
ATOM     27  C   UNL     1      17.564   1.413  14.962  1.00  0.00     0.258 C 
ATOM     28  H   UNL     1      19.346   0.413  14.449  1.00  0.00     0.163 HD
ATOM     29  O   UNL     1      16.520   1.963  14.460  1.00  0.00    -0.271 OA
BRANCH  27  30
ATOM     30  C   UNL     1      17.657   1.450  16.427  1.00  0.00     0.329 C 
BRANCH  30  31
ATOM     31  O   UNL     1      18.856   1.530  17.037  1.00  0.00    -0.483 OA
BRANCH  31  32
ATOM     32  C   UNL     1      19.311   1.849  18.240  1.00  0.00     0.131 A 
ATOM     33  C   UNL     1      18.539   2.087  19.391  1.00  0.00     0.050 A 
ATOM     34  C   UNL     1      20.710   1.963  18.419  1.00  0.00     0.063 A 
ATOM     35  C   UNL     1      19.109   2.406  20.597  1.00  0.00    -0.044 A 
ATOM     36  C   UNL     1      21.258   2.284  19.633  1.00  0.00     0.142 A 
ATOM     37  C   UNL     1      21.499   1.733  17.302  1.00  0.00    -0.023 A 
ATOM     38  C   UNL     1      18.271   2.630  21.794  1.00  0.00     0.044 C 
ATOM     39  C   UNL     1      20.461   2.512  20.749  1.00  0.00     0.051 A 
ATOM     40  O   UNL     1      22.579   2.382  19.759  1.00  0.00    -0.422 OA
ATOM     41  C   UNL     1      22.878   1.847  17.485  1.00  0.00     0.042 A 
ATOM     42  C   UNL     1      21.233   1.381  15.914  1.00  0.00     0.037 C 
ATOM     43  C   UNL     1      23.365   2.173  18.730  1.00  0.00     0.339 A 
ATOM     44  C   UNL     1      23.577   1.572  16.203  1.00  0.00     0.044 C 
ATOM     45  C   UNL     1      22.559   0.752  15.455  1.00  0.00     0.010 C 
ATOM     46  O   UNL     1      24.626   2.271  18.862  1.00  0.00    -0.246 OA
ENDBRANCH  31  32
ENDBRANCH  30  31
ENDBRANCH  27  30
ENDBRANCH  25  26
ENDBRANCH  24  25
ENDBRANCH   3  24
TORSDOF 11
ENDMDL
MODEL 4
REMARK VINA RESULT:   -11.630      2.626      6.062
REMARK INTER + INTRA:         -22.094
REMARK INTER:                 -18.282
REMARK INTRA:                  -3.813
REMARK UNBOUND:                -2.986
REMARK SMILES Cc1cc(OCC(=O)NCCNC(=O)c2cccc(COc3ccccc3C(N)=O)c2)c2c3c(c(=O)oc2c1)CCC3
REMARK SMILES IDX 14 1 13 2 12 3 15 5 16 6 31 7 17 8 19 9 18 10 20 11 21 12
REMARK SMILES IDX 22 13 27 14 23 15 26 16 24 17 25 18 28 19 29 20 30 21 11 24
REMARK SMILES IDX 10 25 9 26 7 27 8 29 6 30 5 31 4 32 3 33 32 34 2 35 38 36
REMARK SMILES IDX 33 37 1 38 39 39 37 40 34 41 42 42 35 43 40 44 41 45 36 46
REMARK H PARENT 12 4 29 22 29 23 9 28
REMARK Flexibility Score: inf
ROOT
ATOM      1  O   UNL     1      25.172  -0.764  17.429  1.00  0.00    -0.269 OA
ATOM      2  C   UNL     1      24.584  -0.288  16.443  1.00  0.00     0.251 C 
ATOM      3  N   UNL     1      25.008   0.886  15.763  1.00  0.00    -0.350 N 
ATOM      4  H   UNL     1      24.444   1.196  14.939  1.00  0.00     0.163 HD
ENDROOT
BRANCH   2   5
ATOM      5  C   UNL     1      23.394  -0.976  15.964  1.00  0.00     0.040 A 
ATOM      6  C   UNL     1      23.234  -1.123  14.601  1.00  0.00     0.014 A 
ATOM      7  C   UNL     1      22.427  -1.477  16.805  1.00  0.00     0.021 A 
ATOM      8  C   UNL     1      22.132  -1.755  14.088  1.00  0.00     0.001 A 
ATOM      9  C   UNL     1      21.293  -2.125  16.324  1.00  0.00    -0.010 A 
ATOM     10  C   UNL     1      21.179  -2.245  14.959  1.00  0.00     0.007 A 
BRANCH   9  11
ATOM     11  C   UNL     1      20.303  -2.624  17.300  1.00  0.00     0.265 C 
BRANCH  11  12
ATOM     12  O   UNL     1      18.988  -2.344  16.844  1.00  0.00    -0.488 OA
BRANCH  12  13
ATOM     13  C   UNL     1      17.955  -3.258  17.016  1.00  0.00     0.132 A 
ATOM     14  C   UNL     1      16.824  -3.176  16.259  1.00  0.00     0.081 A 
ATOM     15  C   UNL     1      18.044  -4.270  17.955  1.00  0.00     0.047 A 
ATOM     16  C   UNL     1      15.809  -4.104  16.455  1.00  0.00     0.018 A 
ATOM     17  C   UNL     1      17.032  -5.189  18.143  1.00  0.00     0.004 A 
ATOM     18  C   UNL     1      15.875  -5.122  17.384  1.00  0.00     0.001 A 
BRANCH  14  19
ATOM     19  C   UNL     1      16.635  -2.147  15.247  1.00  0.00     0.252 C 
ATOM     20  N   UNL     1      17.645  -1.864  14.298  1.00  0.00    -0.365 N 
ATOM     21  O   UNL     1      15.548  -1.491  15.210  1.00  0.00    -0.269 OA
ATOM     22  H   UNL     1      18.573  -1.522  14.614  1.00  0.00     0.159 HD
ATOM     23  H   UNL     1      17.476  -1.992  13.285  1.00  0.00     0.159 HD
ENDBRANCH  14  19
ENDBRANCH  12  13
ENDBRANCH  11  12
ENDBRANCH   9  11
ENDBRANCH   2   5
BRANCH   3  24
ATOM     24  C   UNL     1      26.147   1.646  16.147  1.00  0.00     0.137 C 
BRANCH  24  25
ATOM     25  C   UNL     1      25.947   2.845  16.967  1.00  0.00     0.137 C 
BRANCH  25  26
ATOM     26  N   UNL     1      24.645   3.103  17.508  1.00  0.00    -0.351 N 
ATOM     27  C   UNL     1      24.199   2.501  18.703  1.00  0.00     0.258 C 
ATOM     28  H   UNL     1      23.959   3.764  17.034  1.00  0.00     0.163 HD
ATOM     29  O   UNL     1      25.017   1.683  19.256  1.00  0.00    -0.271 OA
BRANCH  27  30
ATOM     30  C   UNL     1      22.922   2.691  19.403  1.00  0.00     0.329 C 
BRANCH  30  31
ATOM     31  O   UNL     1      21.773   2.223  18.875  1.00  0.00    -0.483 OA
BRANCH  31  32
ATOM     32  C   UNL     1      20.487   2.233  19.193  1.00  0.00     0.131 A 
ATOM     33  C   UNL     1      19.940   2.505  20.460  1.00  0.00     0.050 A 
ATOM     34  C   UNL     1      19.544   1.951  18.177  1.00  0.00     0.063 A 
ATOM     35  C   UNL     1      18.587   2.496  20.685  1.00  0.00    -0.044 A 
ATOM     36  C   UNL     1      18.197   1.947  18.424  1.00  0.00     0.142 A 
ATOM     37  C   UNL     1      20.053   1.679  16.916  1.00  0.00    -0.023 A 
ATOM     38  C   UNL     1      18.042   2.807  22.023  1.00  0.00     0.044 C 
ATOM     39  C   UNL     1      17.693   2.222  19.691  1.00  0.00     0.051 A 
ATOM     40  O   UNL     1      17.342   1.677  17.441  1.00  0.00    -0.422 OA
ATOM     41  C   UNL     1      19.117   1.403  15.918  1.00  0.00     0.042 A 
ATOM     42  C   UNL     1      21.391   1.611  16.343  1.00  0.00     0.037 C 
ATOM     43  C   UNL     1      17.778   1.414  16.232  1.00  0.00     0.339 A 
ATOM     44  C   UNL     1      19.818   1.136  14.635  1.00  0.00     0.044 C 
ATOM     45  C   UNL     1      21.138   1.832  14.842  1.00  0.00     0.010 C 
ATOM     46  O   UNL     1      16.952   1.156  15.301  1.00  0.00    -0.246 OA
ENDBRANCH  31  32
ENDBRANCH  30  31
ENDBRANCH  27  30
ENDBRANCH  25  26
ENDBRANCH  24  25
ENDBRANCH   3  24
TORSDOF 11
ENDMDL
MODEL 5
REMARK VINA RESULT:   -11.534      2.394      5.062
REMARK INTER + INTRA:         -21.936
REMARK INTER:                 -18.942
REMARK INTRA:                  -2.995
REMARK UNBOUND:                -2.986
REMARK SMILES Cc1cc(OCC(=O)NCCNC(=O)c2cccc(COc3ccccc3C(N)=O)c2)c2c3c(c(=O)oc2c1)CCC3
REMARK SMILES IDX 14 1 13 2 12 3 15 5 16 6 31 7 17 8 19 9 18 10 20 11 21 12
REMARK SMILES IDX 22 13 27 14 23 15 26 16 24 17 25 18 28 19 29 20 30 21 11 24
REMARK SMILES IDX 10 25 9 26 7 27 8 29 6 30 5 31 4 32 3 33 32 34 2 35 38 36
REMARK SMILES IDX 33 37 1 38 39 39 37 40 34 41 42 42 35 43 40 44 41 45 36 46
REMARK H PARENT 12 4 29 22 29 23 9 28
REMARK Flexibility Score: inf
ROOT
ATOM      1  O   UNL     1      20.352  -0.720  13.754  1.00  0.00    -0.269 OA
ATOM      2  C   UNL     1      21.014  -1.353  14.594  1.00  0.00     0.251 C 
ATOM      3  N   UNL     1      22.433  -1.424  14.589  1.00  0.00    -0.350 N 
ATOM      4  H   UNL     1      22.891  -1.978  15.348  1.00  0.00     0.163 HD
ENDROOT
BRANCH   2   5
ATOM      5  C   UNL     1      20.286  -2.060  15.638  1.00  0.00     0.040 A 
ATOM      6  C   UNL     1      20.659  -1.841  16.949  1.00  0.00     0.014 A 
ATOM      7  C   UNL     1      19.257  -2.935  15.376  1.00  0.00     0.021 A 
ATOM      8  C   UNL     1      20.018  -2.482  17.977  1.00  0.00     0.001 A 
ATOM      9  C   UNL     1      18.581  -3.606  16.391  1.00  0.00    -0.010 A 
ATOM     10  C   UNL     1      18.990  -3.355  17.679  1.00  0.00     0.007 A 
BRANCH   9  11
ATOM     11  C   UNL     1      17.494  -4.532  16.017  1.00  0.00     0.265 C 
BRANCH  11  12
ATOM     12  O   UNL     1      17.020  -4.223  14.715  1.00  0.00    -0.488 OA
BRANCH  12  13
ATOM     13  C   UNL     1      16.797  -5.221  13.773  1.00  0.00     0.132 A 
ATOM     14  C   UNL     1      15.881  -5.044  12.779  1.00  0.00     0.081 A 
ATOM     15  C   UNL     1      17.494  -6.415  13.817  1.00  0.00     0.047 A 
ATOM     16  C   UNL     1      15.681  -6.060  11.853  1.00  0.00     0.018 A 
ATOM     17  C   UNL     1      17.291  -7.420  12.893  1.00  0.00     0.004 A 
ATOM     18  C   UNL     1      16.364  -7.259  11.877  1.00  0.00     0.001 A 
BRANCH  14  19
ATOM     19  C   UNL     1      15.096  -3.825  12.649  1.00  0.00     0.252 C 
ATOM     20  N   UNL     1      13.952  -3.606  13.451  1.00  0.00    -0.365 N 
ATOM     21  O   UNL     1      15.441  -2.940  11.806  1.00  0.00    -0.269 OA
ATOM     22  H   UNL     1      13.142  -4.251  13.387  1.00  0.00     0.159 HD
ATOM     23  H   UNL     1      13.906  -2.807  14.108  1.00  0.00     0.159 HD
ENDBRANCH  14  19
ENDBRANCH  12  13
ENDBRANCH  11  12
ENDBRANCH   9  11
ENDBRANCH   2   5
BRANCH   3  24
ATOM     24  C   UNL     1      23.247  -0.784  13.613  1.00  0.00     0.137 C 
BRANCH  24  25
ATOM     25  C   UNL     1      24.015   0.400  14.008  1.00  0.00     0.137 C 
BRANCH  25  26
ATOM     26  N   UNL     1      23.378   1.402  14.811  1.00  0.00    -0.351 N 
ATOM     27  C   UNL     1      23.375   1.339  16.221  1.00  0.00     0.258 C 
ATOM     28  H   UNL     1      22.882   2.238  14.380  1.00  0.00     0.163 HD
ATOM     29  O   UNL     1      23.948   0.314  16.736  1.00  0.00    -0.271 OA
BRANCH  27  30
ATOM     30  C   UNL     1      22.808   2.297  17.179  1.00  0.00     0.329 C 
BRANCH  30  31
ATOM     31  O   UNL     1      21.734   1.968  17.925  1.00  0.00    -0.483 OA
BRANCH  31  32
ATOM     32  C   UNL     1      20.436   1.795  17.729  1.00  0.00     0.131 A 
ATOM     33  C   UNL     1      19.813   1.426  16.523  1.00  0.00     0.050 A 
ATOM     34  C   UNL     1      19.561   1.988  18.824  1.00  0.00     0.063 A 
ATOM     35  C   UNL     1      18.454   1.266  16.425  1.00  0.00    -0.044 A 
ATOM     36  C   UNL     1      18.207   1.823  18.704  1.00  0.00     0.142 A 
ATOM     37  C   UNL     1      20.146   2.351  20.028  1.00  0.00    -0.023 A 
ATOM     38  C   UNL     1      17.832   0.857  15.148  1.00  0.00     0.044 C 
ATOM     39  C   UNL     1      17.627   1.456  17.493  1.00  0.00     0.051 A 
ATOM     40  O   UNL     1      17.419   2.014  19.758  1.00  0.00    -0.422 OA
ATOM     41  C   UNL     1      19.277   2.540  21.104  1.00  0.00     0.042 A 
ATOM     42  C   UNL     1      21.511   2.596  20.472  1.00  0.00     0.037 C 
ATOM     43  C   UNL     1      17.927   2.359  20.917  1.00  0.00     0.339 A 
ATOM     44  C   UNL     1      20.055   2.922  22.313  1.00  0.00     0.044 C 
ATOM     45  C   UNL     1      21.425   2.385  21.993  1.00  0.00     0.010 C 
ATOM     46  O   UNL     1      17.163   2.540  21.917  1.00  0.00    -0.246 OA
ENDBRANCH  31  32
ENDBRANCH  30  31
ENDBRANCH  27  30
ENDBRANCH  25  26
ENDBRANCH  24  25
ENDBRANCH   3  24
TORSDOF 11
ENDMDL
MODEL 6
REMARK VINA RESULT:   -11.498      1.941      8.021
REMARK INTER + INTRA:         -21.877
REMARK INTER:                 -19.051
REMARK INTRA:                  -2.826
REMARK UNBOUND:                -2.986
REMARK SMILES Cc1cc(OCC(=O)NCCNC(=O)c2cccc(COc3ccccc3C(N)=O)c2)c2c3c(c(=O)oc2c1)CCC3
REMARK SMILES IDX 14 1 13 2 12 3 15 5 16 6 31 7 17 8 19 9 18 10 20 11 21 12
REMARK SMILES IDX 22 13 27 14 23 15 26 16 24 17 25 18 28 19 29 20 30 21 11 24
REMARK SMILES IDX 10 25 9 26 7 27 8 29 6 30 5 31 4 32 3 33 32 34 2 35 38 36
REMARK SMILES IDX 33 37 1 38 39 39 37 40 34 41 42 42 35 43 40 44 41 45 36 46
REMARK H PARENT 12 4 29 22 29 23 9 28
REMARK Flexibility Score: inf
ROOT
ATOM      1  O   UNL     1      21.034  -0.858  12.842  1.00  0.00    -0.269 OA
ATOM      2  C   UNL     1      20.485  -0.328  13.823  1.00  0.00     0.251 C 
ATOM      3  N   UNL     1      19.206   0.290  13.772  1.00  0.00    -0.350 N 
ATOM      4  H   UNL     1      18.832   0.699  14.659  1.00  0.00     0.163 HD
ENDROOT
BRANCH   2   5
ATOM      5  C   UNL     1      21.199  -0.343  15.091  1.00  0.00     0.040 A 
ATOM      6  C   UNL     1      21.981  -1.443  15.381  1.00  0.00     0.014 A 
ATOM      7  C   UNL     1      21.124   0.680  16.008  1.00  0.00     0.021 A 
ATOM      8  C   UNL     1      22.673  -1.521  16.562  1.00  0.00     0.001 A 
ATOM      9  C   UNL     1      21.811   0.640  17.218  1.00  0.00    -0.010 A 
ATOM     10  C   UNL     1      22.575  -0.477  17.460  1.00  0.00     0.007 A 
BRANCH   9  11
ATOM     11  C   UNL     1      21.666   1.780  18.145  1.00  0.00     0.265 C 
BRANCH  11  12
ATOM     12  O   UNL     1      20.389   1.744  18.763  1.00  0.00    -0.488 OA
BRANCH  12  13
ATOM     13  C   UNL     1      20.173   2.325  20.007  1.00  0.00     0.132 A 
ATOM     14  C   UNL     1      18.908   2.608  20.430  1.00  0.00     0.081 A 
ATOM     15  C   UNL     1      21.229   2.631  20.847  1.00  0.00     0.047 A 
ATOM     16  C   UNL     1      18.725   3.189  21.678  1.00  0.00     0.018 A 
ATOM     17  C   UNL     1      21.039   3.207  22.086  1.00  0.00     0.004 A 
ATOM     18  C   UNL     1      19.761   3.502  22.533  1.00  0.00     0.001 A 
BRANCH  14  19
ATOM     19  C   UNL     1      17.733   2.326  19.618  1.00  0.00     0.252 C 
ATOM     20  N   UNL     1      17.855   2.005  18.246  1.00  0.00    -0.365 N 
ATOM     21  O   UNL     1      16.578   2.366  20.145  1.00  0.00    -0.269 OA
ATOM     22  H   UNL     1      18.267   2.692  17.587  1.00  0.00     0.159 HD
ATOM     23  H   UNL     1      17.538   1.089  17.883  1.00  0.00     0.159 HD
ENDBRANCH  14  19
ENDBRANCH  12  13
ENDBRANCH  11  12
ENDBRANCH   9  11
ENDBRANCH   2   5
BRANCH   3  24
ATOM     24  C   UNL     1      18.422   0.374  12.588  1.00  0.00     0.137 C 
BRANCH  24  25
ATOM     25  C   UNL     1      16.964   0.447  12.715  1.00  0.00     0.137 C 
BRANCH  25  26
ATOM     26  N   UNL     1      16.326  -0.272  13.778  1.00  0.00    -0.351 N 
ATOM     27  C   UNL     1      15.815  -1.574  13.598  1.00  0.00     0.258 C 
ATOM     28  H   UNL     1      16.212   0.145  14.750  1.00  0.00     0.163 HD
ATOM     29  O   UNL     1      15.929  -2.061  12.418  1.00  0.00    -0.271 OA
BRANCH  27  30
ATOM     30  C   UNL     1      15.177  -2.452  14.587  1.00  0.00     0.329 C 
BRANCH  30  31
ATOM     31  O   UNL     1      15.834  -3.519  15.084  1.00  0.00    -0.483 OA
BRANCH  31  32
ATOM     32  C   UNL     1      16.481  -4.569  14.600  1.00  0.00     0.131 A 
ATOM     33  C   UNL     1      16.036  -5.430  13.581  1.00  0.00     0.050 A 
ATOM     34  C   UNL     1      17.753  -4.878  15.137  1.00  0.00     0.063 A 
ATOM     35  C   UNL     1      16.788  -6.491  13.145  1.00  0.00    -0.044 A 
ATOM     36  C   UNL     1      18.487  -5.943  14.687  1.00  0.00     0.142 A 
ATOM     37  C   UNL     1      18.221  -4.046  16.144  1.00  0.00    -0.023 A 
ATOM     38  C   UNL     1      16.302  -7.366  12.058  1.00  0.00     0.044 C 
ATOM     39  C   UNL     1      18.013  -6.773  13.676  1.00  0.00     0.051 A 
ATOM     40  O   UNL     1      19.679  -6.200  15.219  1.00  0.00    -0.422 OA
ATOM     41  C   UNL     1      19.476  -4.356  16.669  1.00  0.00     0.042 A 
ATOM     42  C   UNL     1      17.701  -2.866  16.822  1.00  0.00     0.037 C 
ATOM     43  C   UNL     1      20.162  -5.441  16.173  1.00  0.00     0.339 A 
ATOM     44  C   UNL     1      19.830  -3.376  17.730  1.00  0.00     0.044 C 
ATOM     45  C   UNL     1      18.971  -2.193  17.370  1.00  0.00     0.010 C 
ATOM     46  O   UNL     1      21.302  -5.697  16.675  1.00  0.00    -0.246 OA
ENDBRANCH  31  32
ENDBRANCH  30  31
ENDBRANCH  27  30
ENDBRANCH  25  26
ENDBRANCH  24  25
ENDBRANCH   3  24
TORSDOF 11
ENDMDL
MODEL 7
REMARK VINA RESULT:   -11.465      3.348      7.370
REMARK INTER + INTRA:         -21.824
REMARK INTER:                 -17.371
REMARK INTRA:                  -4.453
REMARK UNBOUND:                -2.986
REMARK SMILES Cc1cc(OCC(=O)NCCNC(=O)c2cccc(COc3ccccc3C(N)=O)c2)c2c3c(c(=O)oc2c1)CCC3
REMARK SMILES IDX 14 1 13 2 12 3 15 5 16 6 31 7 17 8 19 9 18 10 20 11 21 12
REMARK SMILES IDX 22 13 27 14 23 15 26 16 24 17 25 18 28 19 29 20 30 21 11 24
REMARK SMILES IDX 10 25 9 26 7 27 8 29 6 30 5 31 4 32 3 33 32 34 2 35 38 36
REMARK SMILES IDX 33 37 1 38 39 39 37 40 34 41 42 42 35 43 40 44 41 45 36 46
REMARK H PARENT 12 4 29 22 29 23 9 28
REMARK Flexibility Score: inf
ROOT
ATOM      1  O   UNL     1      18.607   1.336  14.637  1.00  0.00    -0.269 OA
ATOM      2  C   UNL     1      19.231   0.562  13.893  1.00  0.00     0.251 C 
ATOM      3  N   UNL     1      18.608  -0.417  13.071  1.00  0.00    -0.350 N 
ATOM      4  H   UNL     1      19.228  -1.013  12.476  1.00  0.00     0.163 HD
ENDROOT
BRANCH   2   5
ATOM      5  C   UNL     1      20.683   0.668  13.867  1.00  0.00     0.040 A 
ATOM      6  C   UNL     1      21.402  -0.402  13.374  1.00  0.00     0.014 A 
ATOM      7  C   UNL     1      21.363   1.777  14.316  1.00  0.00     0.021 A 
ATOM      8  C   UNL     1      22.772  -0.367  13.331  1.00  0.00     0.001 A 
ATOM      9  C   UNL     1      22.753   1.852  14.288  1.00  0.00    -0.010 A 
ATOM     10  C   UNL     1      23.423   0.760  13.790  1.00  0.00     0.007 A 
BRANCH   9  11
ATOM     11  C   UNL     1      23.399   3.078  14.797  1.00  0.00     0.265 C 
BRANCH  11  12
ATOM     12  O   UNL     1      24.544   3.384  14.015  1.00  0.00    -0.488 OA
BRANCH  12  13
ATOM     13  C   UNL     1      25.788   3.580  14.604  1.00  0.00     0.132 A 
ATOM     14  C   UNL     1      26.548   4.662  14.273  1.00  0.00     0.081 A 
ATOM     15  C   UNL     1      26.287   2.688  15.535  1.00  0.00     0.047 A 
ATOM     16  C   UNL     1      27.787   4.830  14.879  1.00  0.00     0.018 A 
ATOM     17  C   UNL     1      27.519   2.862  16.133  1.00  0.00     0.004 A 
ATOM     18  C   UNL     1      28.305   3.955  15.810  1.00  0.00     0.001 A 
BRANCH  14  19
ATOM     19  C   UNL     1      26.111   5.656  13.303  1.00  0.00     0.252 C 
ATOM     20  N   UNL     1      26.045   5.348  11.924  1.00  0.00    -0.365 N 
ATOM     21  O   UNL     1      25.782   6.818  13.695  1.00  0.00    -0.269 OA
ATOM     22  H   UNL     1      26.905   5.080  11.410  1.00  0.00     0.159 HD
ATOM     23  H   UNL     1      25.145   5.384  11.413  1.00  0.00     0.159 HD
ENDBRANCH  14  19
ENDBRANCH  12  13
ENDBRANCH  11  12
ENDBRANCH   9  11
ENDBRANCH   2   5
BRANCH   3  24
ATOM     24  C   UNL     1      17.201  -0.619  13.023  1.00  0.00     0.137 C 
BRANCH  24  25
ATOM     25  C   UNL     1      16.572  -1.426  14.072  1.00  0.00     0.137 C 
BRANCH  25  26
ATOM     26  N   UNL     1      17.030  -1.285  15.423  1.00  0.00    -0.351 N 
ATOM     27  C   UNL     1      18.149  -1.992  15.910  1.00  0.00     0.258 C 
ATOM     28  H   UNL     1      16.549  -0.637  16.115  1.00  0.00     0.163 HD
ATOM     29  O   UNL     1      18.710  -2.793  15.080  1.00  0.00    -0.271 OA
BRANCH  27  30
ATOM     30  C   UNL     1      18.764  -1.927  17.242  1.00  0.00     0.329 C 
BRANCH  30  31
ATOM     31  O   UNL     1      19.693  -0.992  17.525  1.00  0.00    -0.483 OA
BRANCH  31  32
ATOM     32  C   UNL     1      19.742   0.156  18.183  1.00  0.00     0.131 A 
ATOM     33  C   UNL     1      18.662   0.816  18.797  1.00  0.00     0.050 A 
ATOM     34  C   UNL     1      20.992   0.808  18.303  1.00  0.00     0.063 A 
ATOM     35  C   UNL     1      18.819   2.004  19.463  1.00  0.00    -0.044 A 
ATOM     36  C   UNL     1      21.126   1.995  18.972  1.00  0.00     0.142 A 
ATOM     37  C   UNL     1      22.078   0.181  17.708  1.00  0.00    -0.023 A 
ATOM     38  C   UNL     1      17.667   2.663  20.115  1.00  0.00     0.044 C 
ATOM     39  C   UNL     1      20.033   2.617  19.567  1.00  0.00     0.051 A 
ATOM     40  O   UNL     1      22.320   2.576  19.061  1.00  0.00    -0.422 OA
ATOM     41  C   UNL     1      23.308   0.828  17.831  1.00  0.00     0.042 A 
ATOM     42  C   UNL     1      22.263  -1.050  16.952  1.00  0.00     0.037 C 
ATOM     43  C   UNL     1      23.374   2.020  18.515  1.00  0.00     0.339 A 
ATOM     44  C   UNL     1      24.361   0.034  17.146  1.00  0.00     0.044 C 
ATOM     45  C   UNL     1      23.761  -1.347  17.133  1.00  0.00     0.010 C 
ATOM     46  O   UNL     1      24.510   2.585  18.606  1.00  0.00    -0.246 OA
ENDBRANCH  31  32
ENDBRANCH  30  31
ENDBRANCH  27  30
ENDBRANCH  25  26
ENDBRANCH  24  25
ENDBRANCH   3  24
TORSDOF 11
ENDMDL
MODEL 8
REMARK VINA RESULT:   -11.436      2.129      7.604
REMARK INTER + INTRA:         -21.775
REMARK INTER:                 -17.860
REMARK INTRA:                  -3.915
REMARK UNBOUND:                -2.986
REMARK SMILES Cc1cc(OCC(=O)NCCNC(=O)c2cccc(COc3ccccc3C(N)=O)c2)c2c3c(c(=O)oc2c1)CCC3
REMARK SMILES IDX 14 1 13 2 12 3 15 5 16 6 31 7 17 8 19 9 18 10 20 11 21 12
REMARK SMILES IDX 22 13 27 14 23 15 26 16 24 17 25 18 28 19 29 20 30 21 11 24
REMARK SMILES IDX 10 25 9 26 7 27 8 29 6 30 5 31 4 32 3 33 32 34 2 35 38 36
REMARK SMILES IDX 33 37 1 38 39 39 37 40 34 41 42 42 35 43 40 44 41 45 36 46
REMARK H PARENT 12 4 29 22 29 23 9 28
REMARK Flexibility Score: inf
ROOT
ATOM      1  O   UNL     1      19.273  -3.066  18.225  1.00  0.00    -0.269 OA
ATOM      2  C   UNL     1      20.257  -3.026  17.467  1.00  0.00     0.251 C 
ATOM      3  N   UNL     1      20.651  -4.104  16.628  1.00  0.00    -0.350 N 
ATOM      4  H   UNL     1      21.491  -3.962  16.023  1.00  0.00     0.163 HD
ENDROOT
BRANCH   2   5
ATOM      5  C   UNL     1      21.047  -1.803  17.444  1.00  0.00     0.040 A 
ATOM      6  C   UNL     1      22.416  -1.920  17.315  1.00  0.00     0.014 A 
ATOM      7  C   UNL     1      20.492  -0.548  17.550  1.00  0.00     0.021 A 
ATOM      8  C   UNL     1      23.216  -0.807  17.294  1.00  0.00     0.001 A 
ATOM      9  C   UNL     1      21.270   0.607  17.532  1.00  0.00    -0.010 A 
ATOM     10  C   UNL     1      22.628   0.438  17.404  1.00  0.00     0.007 A 
BRANCH   9  11
ATOM     11  C   UNL     1      20.590   1.911  17.659  1.00  0.00     0.265 C 
BRANCH  11  12
ATOM     12  O   UNL     1      19.618   1.854  18.691  1.00  0.00    -0.488 OA
BRANCH  12  13
ATOM     13  C   UNL     1      19.889   2.338  19.965  1.00  0.00     0.132 A 
ATOM     14  C   UNL     1      18.873   2.652  20.819  1.00  0.00     0.081 A 
ATOM     15  C   UNL     1      21.189   2.516  20.402  1.00  0.00     0.047 A 
ATOM     16  C   UNL     1      19.176   3.134  22.086  1.00  0.00     0.018 A 
ATOM     17  C   UNL     1      21.483   2.995  21.662  1.00  0.00     0.004 A 
ATOM     18  C   UNL     1      20.464   3.319  22.543  1.00  0.00     0.001 A 
BRANCH  14  19
ATOM     19  C   UNL     1      17.472   2.502  20.452  1.00  0.00     0.252 C 
ATOM     20  N   UNL     1      17.039   2.717  19.123  1.00  0.00    -0.365 N 
ATOM     21  O   UNL     1      16.621   2.170  21.335  1.00  0.00    -0.269 OA
ATOM     22  H   UNL     1      17.156   3.650  18.684  1.00  0.00     0.159 HD
ATOM     23  H   UNL     1      16.604   1.955  18.574  1.00  0.00     0.159 HD
ENDBRANCH  14  19
ENDBRANCH  12  13
ENDBRANCH  11  12
ENDBRANCH   9  11
ENDBRANCH   2   5
BRANCH   3  24
ATOM     24  C   UNL     1      19.963  -5.348  16.576  1.00  0.00     0.137 C 
BRANCH  24  25
ATOM     25  C   UNL     1      19.022  -5.583  15.477  1.00  0.00     0.137 C 
BRANCH  25  26
ATOM     26  N   UNL     1      18.720  -4.506  14.582  1.00  0.00    -0.351 N 
ATOM     27  C   UNL     1      17.720  -3.553  14.869  1.00  0.00     0.258 C 
ATOM     28  H   UNL     1      19.240  -4.375  13.663  1.00  0.00     0.163 HD
ATOM     29  O   UNL     1      17.076  -3.730  15.963  1.00  0.00    -0.271 OA
BRANCH  27  30
ATOM     30  C   UNL     1      17.322  -2.378  14.082  1.00  0.00     0.329 C 
BRANCH  30  31
ATOM     31  O   UNL     1      18.225  -1.431  13.758  1.00  0.00    -0.483 OA
BRANCH  31  32
ATOM     32  C   UNL     1      18.291  -0.108  13.780  1.00  0.00     0.131 A 
ATOM     33  C   UNL     1      17.204   0.784  13.827  1.00  0.00     0.050 A 
ATOM     34  C   UNL     1      19.568   0.500  13.761  1.00  0.00     0.063 A 
ATOM     35  C   UNL     1      17.379   2.143  13.853  1.00  0.00    -0.044 A 
ATOM     36  C   UNL     1      19.720   1.861  13.786  1.00  0.00     0.142 A 
ATOM     37  C   UNL     1      20.661  -0.353  13.716  1.00  0.00    -0.023 A 
ATOM     38  C   UNL     1      16.216   3.054  13.923  1.00  0.00     0.044 C 
ATOM     39  C   UNL     1      18.619   2.711  13.833  1.00  0.00     0.051 A 
ATOM     40  O   UNL     1      20.939   2.393  13.767  1.00  0.00    -0.422 OA
ATOM     41  C   UNL     1      21.918   0.253  13.697  1.00  0.00     0.042 A 
ATOM     42  C   UNL     1      20.831  -1.799  13.684  1.00  0.00     0.037 C 
ATOM     43  C   UNL     1      22.001   1.626  13.724  1.00  0.00     0.339 A 
ATOM     44  C   UNL     1      22.975  -0.791  13.650  1.00  0.00     0.044 C 
ATOM     45  C   UNL     1      22.263  -1.992  14.212  1.00  0.00     0.010 C 
ATOM     46  O   UNL     1      23.161   2.146  13.704  1.00  0.00    -0.246 OA
ENDBRANCH  31  32
ENDBRANCH  30  31
ENDBRANCH  27  30
ENDBRANCH  25  26
ENDBRANCH  24  25
ENDBRANCH   3  24
TORSDOF 11
ENDMDL
MODEL 9
REMARK VINA RESULT:   -11.387      2.843      5.318
REMARK INTER + INTRA:         -21.695
REMARK INTER:                 -18.786
REMARK INTRA:                  -2.909
REMARK UNBOUND:                -2.986
REMARK SMILES Cc1cc(OCC(=O)NCCNC(=O)c2cccc(COc3ccccc3C(N)=O)c2)c2c3c(c(=O)oc2c1)CCC3
REMARK SMILES IDX 14 1 13 2 12 3 15 5 16 6 31 7 17 8 19 9 18 10 20 11 21 12
REMARK SMILES IDX 22 13 27 14 23 15 26 16 24 17 25 18 28 19 29 20 30 21 11 24
REMARK SMILES IDX 10 25 9 26 7 27 8 29 6 30 5 31 4 32 3 33 32 34 2 35 38 36
REMARK SMILES IDX 33 37 1 38 39 39 37 40 34 41 42 42 35 43 40 44 41 45 36 46
REMARK H PARENT 12 4 29 22 29 23 9 28
REMARK Flexibility Score: inf
ROOT
ATOM      1  O   UNL     1      23.413   2.506  14.785  1.00  0.00    -0.269 OA
ATOM      2  C   UNL     1      24.024   1.450  14.551  1.00  0.00     0.251 C 
ATOM      3  N   UNL     1      25.437   1.319  14.639  1.00  0.00    -0.350 N 
ATOM      4  H   UNL     1      25.849   0.382  14.428  1.00  0.00     0.163 HD
ENDROOT
BRANCH   2   5
ATOM      5  C   UNL     1      23.242   0.284  14.162  1.00  0.00     0.040 A 
ATOM      6  C   UNL     1      22.996   0.089  12.818  1.00  0.00     0.014 A 
ATOM      7  C   UNL     1      22.737  -0.618  15.070  1.00  0.00     0.021 A 
ATOM      8  C   UNL     1      22.260  -0.985  12.389  1.00  0.00     0.001 A 
ATOM      9  C   UNL     1      21.986  -1.721  14.675  1.00  0.00    -0.010 A 
ATOM     10  C   UNL     1      21.767  -1.872  13.326  1.00  0.00     0.007 A 
BRANCH   9  11
ATOM     11  C   UNL     1      21.478  -2.634  15.719  1.00  0.00     0.265 C 
BRANCH  11  12
ATOM     12  O   UNL     1      20.127  -2.975  15.450  1.00  0.00    -0.488 OA
BRANCH  12  13
ATOM     13  C   UNL     1      19.246  -3.298  16.476  1.00  0.00     0.132 A 
ATOM     14  C   UNL     1      18.306  -4.270  16.303  1.00  0.00     0.081 A 
ATOM     15  C   UNL     1      19.298  -2.645  17.695  1.00  0.00     0.047 A 
ATOM     16  C   UNL     1      17.441  -4.569  17.347  1.00  0.00     0.018 A 
ATOM     17  C   UNL     1      18.435  -2.948  18.728  1.00  0.00     0.004 A 
ATOM     18  C   UNL     1      17.473  -3.933  18.571  1.00  0.00     0.001 A 
BRANCH  14  19
ATOM     19  C   UNL     1      18.171  -5.012  15.058  1.00  0.00     0.252 C 
ATOM     20  N   UNL     1      19.226  -5.821  14.573  1.00  0.00    -0.365 N 
ATOM     21  O   UNL     1      17.091  -4.937  14.393  1.00  0.00    -0.269 OA
ATOM     22  H   UNL     1      20.140  -5.393  14.334  1.00  0.00     0.159 HD
ATOM     23  H   UNL     1      19.103  -6.841  14.452  1.00  0.00     0.159 HD
ENDBRANCH  14  19
ENDBRANCH  12  13
ENDBRANCH  11  12
ENDBRANCH   9  11
ENDBRANCH   2   5
BRANCH   3  24
ATOM     24  C   UNL     1      26.301   2.390  14.997  1.00  0.00     0.137 C 
BRANCH  24  25
ATOM     25  C   UNL     1      26.487   2.697  16.418  1.00  0.00     0.137 C 
BRANCH  25  26
ATOM     26  N   UNL     1      25.668   2.025  17.384  1.00  0.00    -0.351 N 
ATOM     27  C   UNL     1      24.510   2.621  17.926  1.00  0.00     0.258 C 
ATOM     28  H   UNL     1      25.896   1.046  17.731  1.00  0.00     0.163 HD
ATOM     29  O   UNL     1      24.255   3.813  17.527  1.00  0.00    -0.271 OA
BRANCH  27  30
ATOM     30  C   UNL     1      23.552   2.054  18.884  1.00  0.00     0.329 C 
BRANCH  30  31
ATOM     31  O   UNL     1      22.269   2.470  18.900  1.00  0.00    -0.483 OA
BRANCH  31  32
ATOM     32  C   UNL     1      21.127   2.106  18.338  1.00  0.00     0.131 A 
ATOM     33  C   UNL     1      20.958   1.595  17.038  1.00  0.00     0.050 A 
ATOM     34  C   UNL     1      19.938   2.224  19.097  1.00  0.00     0.063 A 
ATOM     35  C   UNL     1      19.727   1.239  16.551  1.00  0.00    -0.044 A 
ATOM     36  C   UNL     1      18.719   1.863  18.589  1.00  0.00     0.142 A 
ATOM     37  C   UNL     1      20.072   2.725  20.384  1.00  0.00    -0.023 A 
ATOM     38  C   UNL     1      19.585   0.685  15.187  1.00  0.00     0.044 C 
ATOM     39  C   UNL     1      18.592   1.361  17.299  1.00  0.00     0.051 A 
ATOM     40  O   UNL     1      17.625   1.991  19.336  1.00  0.00    -0.422 OA
ATOM     41  C   UNL     1      18.897   2.839  21.127  1.00  0.00     0.042 A 
ATOM     42  C   UNL     1      21.193   3.181  21.195  1.00  0.00     0.037 C 
ATOM     43  C   UNL     1      17.703   2.460  20.559  1.00  0.00     0.339 A 
ATOM     44  C   UNL     1      19.208   3.385  22.474  1.00  0.00     0.044 C 
ATOM     45  C   UNL     1      20.664   3.033  22.632  1.00  0.00     0.010 C 
ATOM     46  O   UNL     1      16.651   2.578  21.262  1.00  0.00    -0.246 OA
ENDBRANCH  31  32
ENDBRANCH  30  31
ENDBRANCH  27  30
ENDBRANCH  25  26
ENDBRANCH  24  25
ENDBRANCH   3  24
TORSDOF 11
ENDMDL
MODEL 10
REMARK VINA RESULT:   -11.247      2.750      5.953
REMARK INTER + INTRA:         -21.465
REMARK INTER:                 -18.140
REMARK INTRA:                  -3.325
REMARK UNBOUND:                -2.986
REMARK SMILES Cc1cc(OCC(=O)NCCNC(=O)c2cccc(COc3ccccc3C(N)=O)c2)c2c3c(c(=O)oc2c1)CCC3
REMARK SMILES IDX 14 1 13 2 12 3 15 5 16 6 31 7 17 8 19 9 18 10 20 11 21 12
REMARK SMILES IDX 22 13 27 14 23 15 26 16 24 17 25 18 28 19 29 20 30 21 11 24
REMARK SMILES IDX 10 25 9 26 7 27 8 29 6 30 5 31 4 32 3 33 32 34 2 35 38 36
REMARK SMILES IDX 33 37 1 38 39 39 37 40 34 41 42 42 35 43 40 44 41 45 36 46
REMARK H PARENT 12 4 29 22 29 23 9 28
REMARK Flexibility Score: inf
ROOT
ATOM      1  O   UNL     1      23.692   3.489  13.890  1.00  0.00    -0.269 OA
ATOM      2  C   UNL     1      23.750   2.281  14.176  1.00  0.00     0.251 C 
ATOM      3  N   UNL     1      24.930   1.633  14.630  1.00  0.00    -0.350 N 
ATOM      4  H   UNL     1      24.867   0.613  14.851  1.00  0.00     0.163 HD
ENDROOT
BRANCH   2   5
ATOM      5  C   UNL     1      22.535   1.491  14.033  1.00  0.00     0.040 A 
ATOM      6  C   UNL     1      22.606   0.320  13.306  1.00  0.00     0.014 A 
ATOM      7  C   UNL     1      21.329   1.862  14.582  1.00  0.00     0.021 A 
ATOM      8  C   UNL     1      21.496  -0.464  13.128  1.00  0.00     0.001 A 
ATOM      9  C   UNL     1      20.179   1.093  14.426  1.00  0.00    -0.010 A 
ATOM     10  C   UNL     1      20.301  -0.063  13.692  1.00  0.00     0.007 A 
BRANCH   9  11
ATOM     11  C   UNL     1      18.926   1.572  15.044  1.00  0.00     0.265 C 
BRANCH  11  12
ATOM     12  O   UNL     1      17.817   1.208  14.237  1.00  0.00    -0.488 OA
BRANCH  12  13
ATOM     13  C   UNL     1      17.258  -0.063  14.309  1.00  0.00     0.132 A 
ATOM     14  C   UNL     1      16.849  -0.705  13.178  1.00  0.00     0.081 A 
ATOM     15  C   UNL     1      17.102  -0.709  15.522  1.00  0.00     0.047 A 
ATOM     16  C   UNL     1      16.295  -1.974  13.282  1.00  0.00     0.018 A 
ATOM     17  C   UNL     1      16.552  -1.970  15.617  1.00  0.00     0.004 A 
ATOM     18  C   UNL     1      16.130  -2.638  14.480  1.00  0.00     0.001 A 
BRANCH  14  19
ATOM     19  C   UNL     1      16.968  -0.108  11.856  1.00  0.00     0.252 C 
ATOM     20  N   UNL     1      17.739  -0.727  10.843  1.00  0.00    -0.365 N 
ATOM     21  O   UNL     1      16.372   0.985  11.600  1.00  0.00    -0.269 OA
ATOM     22  H   UNL     1      18.758  -0.868  10.980  1.00  0.00     0.159 HD
ATOM     23  H   UNL     1      17.302  -1.045   9.960  1.00  0.00     0.159 HD
ENDBRANCH  14  19
ENDBRANCH  12  13
ENDBRANCH  11  12
ENDBRANCH   9  11
ENDBRANCH   2   5
BRANCH   3  24
ATOM     24  C   UNL     1      26.176   2.300  14.797  1.00  0.00     0.137 C 
BRANCH  24  25
ATOM     25  C   UNL     1      26.527   2.810  16.126  1.00  0.00     0.137 C 
BRANCH  25  26
ATOM     26  N   UNL     1      25.923   2.209  17.279  1.00  0.00    -0.351 N 
ATOM     27  C   UNL     1      25.024   2.914  18.105  1.00  0.00     0.258 C 
ATOM     28  H   UNL     1      26.125   1.203  17.560  1.00  0.00     0.163 HD
ATOM     29  O   UNL     1      24.805   4.135  17.779  1.00  0.00    -0.271 OA
BRANCH  27  30
ATOM     30  C   UNL     1      24.296   2.434  19.287  1.00  0.00     0.329 C 
BRANCH  30  31
ATOM     31  O   UNL     1      22.956   2.291  19.257  1.00  0.00    -0.483 OA
BRANCH  31  32
ATOM     32  C   UNL     1      22.086   1.423  18.763  1.00  0.00     0.131 A 
ATOM     33  C   UNL     1      22.369   0.358  17.888  1.00  0.00     0.050 A 
ATOM     34  C   UNL     1      20.727   1.548  19.139  1.00  0.00     0.063 A 
ATOM     35  C   UNL     1      21.393  -0.493  17.438  1.00  0.00    -0.044 A 
ATOM     36  C   UNL     1      19.768   0.686  18.676  1.00  0.00     0.142 A 
ATOM     37  C   UNL     1      20.416   2.588  20.003  1.00  0.00    -0.023 A 
ATOM     38  C   UNL     1      21.726  -1.615  16.535  1.00  0.00     0.044 C 
ATOM     39  C   UNL     1      20.088  -0.355  17.812  1.00  0.00     0.051 A 
ATOM     40  O   UNL     1      18.502   0.839  19.054  1.00  0.00    -0.422 OA
ATOM     41  C   UNL     1      19.075   2.705  20.370  1.00  0.00     0.042 A 
ATOM     42  C   UNL     1      21.181   3.640  20.658  1.00  0.00     0.037 C 
ATOM     43  C   UNL     1      18.160   1.808  19.869  1.00  0.00     0.339 A 
ATOM     44  C   UNL     1      18.908   3.859  21.292  1.00  0.00     0.044 C 
ATOM     45  C   UNL     1      20.295   4.018  21.857  1.00  0.00     0.010 C 
ATOM     46  O   UNL     1      16.946   1.944  20.221  1.00  0.00    -0.246 OA
ENDBRANCH  31  32
ENDBRANCH  30  31
ENDBRANCH  27  30
ENDBRANCH  25  26
ENDBRANCH  24  25
ENDBRANCH   3  24
TORSDOF 11
ENDMDL
