# created with PyMOL 2.4.1
@<TRIPOS>MOLECULE
4TVJ_ligand
32 36 1                 
SMALL
USER_CHARGES
@<TRIPOS>ATOM
1	 CAI	16.757	-6.192	13.267	C.3	1	09L601	0.000	
2	 CAJ	16.402	-7.535	12.681	C.3	1	09L601	0.000	
3	 CAK	17.649	-7.405	13.283	C.3	1	09L601	0.000	
4	 CAL	16.200	-5.862	14.661	C.2	1	09L601	0.000	
5	 CAM	17.982	-4.107	14.865	C.3	1	09L601	0.000	
6	 CAN	16.357	-4.652	16.749	C.3	1	09L601	0.000	
7	 CAO	19.190	-4.245	15.739	C.3	1	09L601	0.000	
8	 CAP	17.599	-4.869	17.586	C.3	1	09L601	0.000	
9	 CAQ	19.055	-2.957	17.895	C.2	1	09L601	0.000	
10	 CAR	20.104	-2.007	17.591	C.2	1	09L601	0.000	
11	 CAS	19.821	-0.633	17.570	C.2	1	09L601	0.000	
12	 CAT	20.821	0.362	17.371	C.2	1	09L601	0.000	
13	 CAU	21.423	-2.409	17.380	C.2	1	09L601	0.000	
14	 CAV	20.512	1.744	17.336	C.3	1	09L601	0.000	
15	 CAW	22.125	-0.088	17.160	C.2	1	09L601	0.000	
16	 CAX	22.410	-1.475	17.164	C.2	1	09L601	0.000	
17	 CAY	19.467	2.118	18.315	C.2	1	09L601	0.000	
18	 CAZ	19.740	2.423	19.636	C.2	1	09L601	0.000	
19	 NAE	16.810	-4.865	15.362	N.pl3	1	09L601	0.000	
20	 NAF	18.699	-4.019	17.120	N.pl3	1	09L601	0.000	
21	 NAG	18.200	2.209	17.893	N.2	1	09L601	0.000	
22	 NAH	17.187	2.520	18.700	N.2	1	09L601	0.000	
23	 OAB	15.257	-6.514	15.114	O.2	1	09L601	0.000	
24	 OAC	18.553	-2.879	19.021	O.2	1	09L601	0.000	
25	 OAD	16.409	3.124	20.776	O.2	1	09L601	0.000	
26	 CBA	18.689	2.742	20.521	C.2	1	09L601	0.000	
27	 CBB	21.049	2.371	20.134	C.2	1	09L601	0.000	
28	 CBC	17.378	2.820	20.052	C.2	1	09L601	0.000	
29	 CBD	18.983	3.007	21.843	C.2	1	09L601	0.000	
30	 CBE	21.345	2.659	21.458	C.2	1	09L601	0.000	
31	 CBF	20.288	2.974	22.322	C.2	1	09L601	0.000	
32	 FAA	21.742	-3.709	17.394	 F	1	09L601	0.000	
@<TRIPOS>BOND
1 1 4 1
2 1 2 1
3 2 3 1
4 1 3 1
5 4 19 1
6 4 23 2
7 5 7 1
8 6 8 1
9 7 20 1
10 8 20 1
11 9 10 1
12 9 24 2
13 10 11 ar
14 10 13 ar
15 11 12 ar
16 12 14 1
17 13 16 ar
18 13 32 1
19 14 17 1
20 12 15 ar
21 15 16 ar
22 17 18 ar
23 17 21 ar
24 18 26 ar
25 18 27 ar
26 5 19 1
27 6 19 1
28 9 20 1
29 21 22 ar
30 26 28 ar
31 27 30 ar
32 22 28 ar
33 25 28 2
34 26 29 ar
35 30 31 ar
36 29 31 ar
@<TRIPOS>SUBSTRUCTURE
1	09L601	1	GROUP	1 A	09L
