MODEL 1
REMARK VINA RESULT:    -9.975      0.000      0.000
REMARK INTER + INTRA:         -41.788
REMARK INTER:                 -32.427
REMARK INTRA:                  -9.362
REMARK UNBOUND:                -9.362
REMARK SMILES NC(=O)c1ccccc1OCc1cccc(C(=O)NC[C@@H](NC(=O)c2ncc[nH]2)C(=O)NCCCCCCCCCCCC([C@]23C[C@]4(S(=O)(=O)O)C[C@](S(=O)(=O)O)(C2)C[C@](S(=O)(=O)O)(C3)C4)([C@]23C[C@]4(S(=O)(=O)O)C[C@](S(=O)(=O)O)(C2)C[C@](S(=O)(=O)O)(C3)C4)[C@]23C[C@]4(S(=O)(=O)O)C[C@](S(=O)(=O)O)(C2)C[C@](S(=O)(=O)O)(C3)C4)c1
REMARK SMILES IDX 35 1 34 2 33 3 32 4 30 5 31 6 21 8 20 9 19 10 18 11 17 12
REMARK SMILES IDX 16 14 15 15 111 16 14 17 12 18 13 19 11 20 10 21 9 22 4 23
REMARK SMILES IDX 8 24 5 25 7 26 6 27 2 28 1 29 3 30 22 33 23 34 24 36 25 37
REMARK SMILES IDX 26 38 29 39 27 40 28 41 36 43 37 44 38 45 39 46 40 47 41 48
REMARK SMILES IDX 42 49 43 50 44 51 67 52 80 53 87 54 68 55 75 56 82 57 69 58
REMARK SMILES IDX 81 59 74 60 88 61 76 62 77 63 78 64 79 65 83 67 84 68 85 69
REMARK SMILES IDX 86 70 70 72 71 73 72 74 73 75 45 77 46 78 58 79 65 80 47 81
REMARK SMILES IDX 53 82 60 83 52 84 66 85 59 86 48 87 49 88 50 89 51 90 54 92
REMARK SMILES IDX 55 93 56 94 57 95 61 97 62 98 63 99 64 100 89 102 102 103
REMARK SMILES IDX 109 104 90 105 97 106 104 107 91 108 103 109 96 110 110 111
REMARK SMILES IDX 98 112 99 113 100 114 101 115 105 117 106 118 107 119
REMARK SMILES IDX 108 120 92 122 93 123 94 124 95 125
REMARK H PARENT 32 7 19 13 1 31 1 32 22 35 29 42 79 66 86 71 73 76 51 91 57 96
REMARK H PARENT 64 101 101 116 108 121 95 126
REMARK Flexibility Score: inf
ROOT
ATOM      1  C   UNL     1      21.760  -2.066  16.987  1.00  0.00     0.002 C 
ENDROOT
BRANCH   1   2
ATOM      2  C   UNL     1      20.694  -2.677  16.168  1.00  0.00     0.021 C 
BRANCH   2   3
ATOM      3  C   UNL     1      20.389  -4.124  16.460  1.00  0.00     0.116 C 
BRANCH   3   4
ATOM      4  N   UNL     1      19.038  -4.428  16.090  1.00  0.00    -0.354 N 
ATOM      5  C   UNL     1      17.910  -4.478  16.944  1.00  0.00     0.244 C 
ATOM      6  O   UNL     1      18.099  -4.237  18.147  1.00  0.00    -0.273 OA
ATOM      7  H   UNL     1      18.858  -4.640  15.058  1.00  0.00     0.163 HD
BRANCH   5   8
ATOM      8  C   UNL     1      16.547  -4.810  16.357  1.00  0.00     0.191 C 
BRANCH   8   9
ATOM      9  C   UNL     1      15.745  -3.589  16.159  1.00  0.00     0.151 C 
BRANCH   9  10
ATOM     10  N   UNL     1      16.437  -2.363  15.923  1.00  0.00    -0.349 N 
ATOM     11  O   UNL     1      15.441  -1.511  13.945  1.00  0.00    -0.269 OA
ATOM     12  C   UNL     1      16.272  -1.431  14.898  1.00  0.00     0.251 C 
ATOM     13  H   UNL     1      17.194  -2.123  16.641  1.00  0.00     0.163 HD
BRANCH  12  14
ATOM     14  C   UNL     1      17.108  -0.227  14.859  1.00  0.00     0.040 A 
ATOM     15  C   UNL     1      17.014   0.682  13.847  1.00  0.00     0.014 A 
ATOM     16  C   UNL     1      18.023  -0.043  15.898  1.00  0.00     0.021 A 
ATOM     17  C   UNL     1      17.845   1.775  13.879  1.00  0.00     0.001 A 
ATOM     18  C   UNL     1      18.863   1.073  15.918  1.00  0.00    -0.010 A 
ATOM     19  C   UNL     1      18.754   1.982  14.881  1.00  0.00     0.007 A 
BRANCH  18  20
ATOM     20  C   UNL     1      19.838   1.252  17.015  1.00  0.00     0.265 C 
BRANCH  20  21
ATOM     21  O   UNL     1      19.265   1.706  18.177  1.00  0.00    -0.488 OA
BRANCH  21  22
ATOM     22  C   UNL     1      19.866   2.186  19.311  1.00  0.00     0.132 A 
ATOM     23  C   UNL     1      19.045   2.566  20.377  1.00  0.00     0.081 A 
ATOM     24  C   UNL     1      21.242   2.293  19.394  1.00  0.00     0.047 A 
ATOM     25  C   UNL     1      19.627   3.052  21.518  1.00  0.00     0.018 A 
ATOM     26  C   UNL     1      21.794   2.785  20.554  1.00  0.00     0.004 A 
ATOM     27  C   UNL     1      20.986   3.163  21.612  1.00  0.00     0.001 A 
BRANCH  23  28
ATOM     28  C   UNL     1      17.575   2.435  20.279  1.00  0.00     0.252 C 
ATOM     29  N   UNL     1      17.013   2.712  19.005  1.00  0.00    -0.365 N 
ATOM     30  O   UNL     1      16.956   2.098  21.296  1.00  0.00    -0.269 OA
ATOM     31  H   UNL     1      17.110   1.968  18.255  1.00  0.00     0.159 HD
ATOM     32  H   UNL     1      16.525   3.597  18.793  1.00  0.00     0.159 HD
ENDBRANCH  23  28
ENDBRANCH  21  22
ENDBRANCH  20  21
ENDBRANCH  18  20
ENDBRANCH  12  14
ENDBRANCH   9  10
ENDBRANCH   8   9
BRANCH   8  33
ATOM     33  N   UNL     1      16.717  -5.590  15.182  1.00  0.00    -0.336 N 
ATOM     34  C   UNL     1      15.819  -6.477  14.562  1.00  0.00     0.287 C 
ATOM     35  H   UNL     1      17.663  -5.496  14.656  1.00  0.00     0.164 HD
ATOM     36  O   UNL     1      14.673  -6.735  14.985  1.00  0.00    -0.266 OA
BRANCH  34  37
ATOM     37  C   UNL     1      16.227  -7.176  13.312  1.00  0.00     0.196 A 
ATOM     38  N   UNL     1      16.695  -6.582  12.203  1.00  0.00    -0.232 NA
ATOM     39  N   UNL     1      16.192  -8.486  13.066  1.00  0.00    -0.341 N 
ATOM     40  C   UNL     1      16.959  -7.493  11.254  1.00  0.00     0.131 A 
ATOM     41  C   UNL     1      16.630  -8.711  11.826  1.00  0.00     0.104 A 
ATOM     42  H   UNL     1      15.864  -9.216  13.766  1.00  0.00     0.168 HD
ENDBRANCH  34  37
ENDBRANCH   8  33
ENDBRANCH   5   8
ENDBRANCH   3   4
ENDBRANCH   2   3
ENDBRANCH   1   2
BRANCH   1  43
ATOM     43  C   UNL     1      22.661  -1.073  16.380  1.00  0.00     0.000 C 
BRANCH  43  44
ATOM     44  C   UNL     1      23.429  -0.178  17.281  1.00  0.00     0.000 C 
BRANCH  44  45
ATOM     45  C   UNL     1      23.628   1.212  16.686  1.00  0.00     0.000 C 
BRANCH  45  46
ATOM     46  C   UNL     1      24.822   1.896  17.344  1.00  0.00     0.000 C 
BRANCH  46  47
ATOM     47  C   UNL     1      24.574   3.356  17.533  1.00  0.00     0.000 C 
BRANCH  47  48
ATOM     48  C   UNL     1      25.661   4.294  17.126  1.00  0.00     0.000 C 
BRANCH  48  49
ATOM     49  C   UNL     1      25.304   5.656  16.780  1.00  0.00     0.001 C 
BRANCH  49  50
ATOM     50  C   UNL     1      25.644   6.928  17.107  1.00  0.00     0.009 C 
BRANCH  50  51
ATOM     51  C   UNL     1      25.947   8.361  16.712  1.00  0.00    -0.012 C 
BRANCH  51  52
ATOM     52  C   UNL     1      26.636   8.296  15.386  1.00  0.00    -0.018 C 
ATOM     53  C   UNL     1      27.993   7.654  15.434  1.00  0.00     0.033 C 
ATOM     54  C   UNL     1      26.036   7.324  14.395  1.00  0.00     0.033 C 
ATOM     55  C   UNL     1      26.705   9.508  14.503  1.00  0.00     0.033 C 
ATOM     56  C   UNL     1      28.655   7.423  14.086  1.00  0.00     0.101 C 
ATOM     57  C   UNL     1      26.677   7.182  13.068  1.00  0.00     0.101 C 
ATOM     58  C   UNL     1      27.606   9.327  13.266  1.00  0.00     0.101 C 
ATOM     59  C   UNL     1      27.956   6.452  13.210  1.00  0.00     0.051 C 
ATOM     60  C   UNL     1      28.934   8.771  13.488  1.00  0.00     0.051 C 
ATOM     61  C   UNL     1      26.950   8.412  12.258  1.00  0.00     0.051 C 
BRANCH  56  62
ATOM     62  S   UNL     1      30.258   6.672  14.396  1.00  0.00     0.270 S 
ATOM     63  O   UNL     1      31.040   6.601  13.110  1.00  0.00    -0.199 OA
ATOM     64  O   UNL     1      30.968   7.474  15.418  1.00  0.00    -0.199 OA
BRANCH  62  65
ATOM     65  O   UNL     1      30.043   5.129  14.992  1.00  0.00    -0.285 OA
ATOM     66  H   UNL     1      29.871   5.115  15.968  1.00  0.00     0.234 HD
ENDBRANCH  62  65
ENDBRANCH  56  62
BRANCH  57  67
ATOM     67  S   UNL     1      25.563   6.207  12.058  1.00  0.00     0.270 S 
ATOM     68  O   UNL     1      24.191   6.860  12.040  1.00  0.00    -0.199 OA
ATOM     69  O   UNL     1      25.343   4.849  12.666  1.00  0.00    -0.199 OA
BRANCH  67  70
ATOM     70  O   UNL     1      26.066   6.036  10.492  1.00  0.00    -0.285 OA
ATOM     71  H   UNL     1      25.430   6.506   9.887  1.00  0.00     0.234 HD
ENDBRANCH  67  70
ENDBRANCH  57  67
BRANCH  58  72
ATOM     72  S   UNL     1      27.779  10.949  12.520  1.00  0.00     0.270 S 
ATOM     73  O   UNL     1      27.502  12.002  13.551  1.00  0.00    -0.199 OA
ATOM     74  O   UNL     1      26.776  11.074  11.413  1.00  0.00    -0.199 OA
BRANCH  72  75
ATOM     75  O   UNL     1      29.348  11.160  11.985  1.00  0.00    -0.285 OA
ATOM     76  H   UNL     1      29.479  12.149  11.883  1.00  0.00     0.234 HD
ENDBRANCH  72  75
ENDBRANCH  58  72
ENDBRANCH  51  52
BRANCH  51  77
ATOM     77  C   UNL     1      24.685   9.182  16.860  1.00  0.00    -0.018 C 
ATOM     78  C   UNL     1      24.673  10.616  16.566  1.00  0.00     0.033 C 
ATOM     79  C   UNL     1      23.765   8.648  17.926  1.00  0.00     0.033 C 
ATOM     80  C   UNL     1      23.641   8.855  15.730  1.00  0.00     0.033 C 
ATOM     81  C   UNL     1      23.329  11.313  16.892  1.00  0.00     0.101 C 
ATOM     82  C   UNL     1      22.610   9.537  18.281  1.00  0.00     0.101 C 
ATOM     83  C   UNL     1      22.279   9.464  15.972  1.00  0.00     0.101 C 
ATOM     84  C   UNL     1      22.866  10.993  18.277  1.00  0.00     0.051 C 
ATOM     85  C   UNL     1      22.348  11.000  15.819  1.00  0.00     0.051 C 
ATOM     86  C   UNL     1      21.548   9.225  17.185  1.00  0.00     0.051 C 
BRANCH  81  87
ATOM     87  S   UNL     1      23.569  13.086  16.808  1.00  0.00     0.270 S 
ATOM     88  O   UNL     1      23.208  13.618  15.470  1.00  0.00    -0.199 OA
ATOM     89  O   UNL     1      22.747  13.779  17.862  1.00  0.00    -0.199 OA
BRANCH  87  90
ATOM     90  O   UNL     1      25.206  13.352  17.076  1.00  0.00    -0.285 OA
ATOM     91  H   UNL     1      25.495  13.126  17.975  1.00  0.00     0.234 HD
ENDBRANCH  87  90
ENDBRANCH  81  87
BRANCH  82  92
ATOM     92  S   UNL     1      21.937   9.043  19.836  1.00  0.00     0.270 S 
ATOM     93  O   UNL     1      20.427   9.051  19.809  1.00  0.00    -0.199 OA
ATOM     94  O   UNL     1      22.364  10.071  20.876  1.00  0.00    -0.199 OA
BRANCH  92  95
ATOM     95  O   UNL     1      22.463   7.568  20.372  1.00  0.00    -0.285 OA
ATOM     96  H   UNL     1      22.345   7.432  21.347  1.00  0.00     0.234 HD
ENDBRANCH  92  95
ENDBRANCH  82  92
BRANCH  83  97
ATOM     97  S   UNL     1      21.269   8.873  14.598  1.00  0.00     0.270 S 
ATOM     98  O   UNL     1      20.032   8.213  15.079  1.00  0.00    -0.199 OA
ATOM     99  O   UNL     1      20.862  10.106  13.828  1.00  0.00    -0.199 OA
BRANCH  97 100
ATOM    100  O   UNL     1      22.191   7.906  13.602  1.00  0.00    -0.285 OA
ATOM    101  H   UNL     1      22.960   7.589  14.124  1.00  0.00     0.234 HD
ENDBRANCH  97 100
ENDBRANCH  83  97
ENDBRANCH  51  77
BRANCH  51 102
ATOM    102  C   UNL     1      26.888   8.892  17.831  1.00  0.00    -0.018 C 
ATOM    103  C   UNL     1      27.423  10.229  17.602  1.00  0.00     0.033 C 
ATOM    104  C   UNL     1      26.191   8.835  19.193  1.00  0.00     0.033 C 
ATOM    105  C   UNL     1      28.036   8.063  18.205  1.00  0.00     0.033 C 
ATOM    106  C   UNL     1      28.135  10.898  18.793  1.00  0.00     0.101 C 
ATOM    107  C   UNL     1      26.995   9.540  20.289  1.00  0.00     0.101 C 
ATOM    108  C   UNL     1      28.911   8.686  19.301  1.00  0.00     0.101 C 
ATOM    109  C   UNL     1      27.263  10.965  19.988  1.00  0.00     0.051 C 
ATOM    110  C   UNL     1      29.354  10.069  19.114  1.00  0.00     0.051 C 
ATOM    111  C   UNL     1      28.178   8.707  20.624  1.00  0.00     0.051 C 
BRANCH 106 112
ATOM    112  S   UNL     1      28.618  12.509  18.194  1.00  0.00     0.270 S 
ATOM    113  O   UNL     1      30.061  12.756  18.430  1.00  0.00    -0.199 OA
ATOM    114  O   UNL     1      27.741  13.507  18.910  1.00  0.00    -0.199 OA
BRANCH 112 115
ATOM    115  O   UNL     1      28.196  12.576  16.563  1.00  0.00    -0.285 OA
ATOM    116  H   UNL     1      28.050  11.681  16.181  1.00  0.00     0.234 HD
ENDBRANCH 112 115
ENDBRANCH 106 112
BRANCH 107 117
ATOM    117  S   UNL     1      26.028   9.556  21.811  1.00  0.00     0.270 S 
ATOM    118  O   UNL     1      25.184   8.275  21.725  1.00  0.00    -0.199 OA
ATOM    119  O   UNL     1      26.944   9.419  22.959  1.00  0.00    -0.199 OA
BRANCH 117 120
ATOM    120  O   UNL     1      24.986  10.844  21.867  1.00  0.00    -0.285 OA
ATOM    121  H   UNL     1      25.220  11.499  21.182  1.00  0.00     0.234 HD
ENDBRANCH 117 120
ENDBRANCH 107 117
BRANCH 108 122
ATOM    122  S   UNL     1      30.318   7.623  19.512  1.00  0.00     0.270 S 
ATOM    123  O   UNL     1      31.595   8.395  19.669  1.00  0.00    -0.199 OA
ATOM    124  O   UNL     1      30.113   6.766  20.749  1.00  0.00    -0.199 OA
BRANCH 122 125
ATOM    125  O   UNL     1      30.476   6.610  18.196  1.00  0.00    -0.285 OA
ATOM    126  H   UNL     1      29.678   6.019  18.171  1.00  0.00     0.234 HD
ENDBRANCH 122 125
ENDBRANCH 108 122
ENDBRANCH  51 102
ENDBRANCH  50  51
ENDBRANCH  49  50
ENDBRANCH  48  49
ENDBRANCH  47  48
ENDBRANCH  46  47
ENDBRANCH  45  46
ENDBRANCH  44  45
ENDBRANCH  43  44
ENDBRANCH   1  43
TORSDOF 43
ENDMDL
MODEL 2
REMARK VINA RESULT:    -9.972      1.426      6.635
REMARK INTER + INTRA:         -41.776
REMARK INTER:                 -32.820
REMARK INTRA:                  -8.956
REMARK UNBOUND:                -9.362
REMARK SMILES NC(=O)c1ccccc1OCc1cccc(C(=O)NC[C@@H](NC(=O)c2ncc[nH]2)C(=O)NCCCCCCCCCCCC([C@]23C[C@]4(S(=O)(=O)O)C[C@](S(=O)(=O)O)(C2)C[C@](S(=O)(=O)O)(C3)C4)([C@]23C[C@]4(S(=O)(=O)O)C[C@](S(=O)(=O)O)(C2)C[C@](S(=O)(=O)O)(C3)C4)[C@]23C[C@]4(S(=O)(=O)O)C[C@](S(=O)(=O)O)(C2)C[C@](S(=O)(=O)O)(C3)C4)c1
REMARK SMILES IDX 35 1 34 2 33 3 32 4 30 5 31 6 21 8 20 9 19 10 18 11 17 12
REMARK SMILES IDX 16 14 15 15 111 16 14 17 12 18 13 19 11 20 10 21 9 22 4 23
REMARK SMILES IDX 8 24 5 25 7 26 6 27 2 28 1 29 3 30 22 33 23 34 24 36 25 37
REMARK SMILES IDX 26 38 29 39 27 40 28 41 36 43 37 44 38 45 39 46 40 47 41 48
REMARK SMILES IDX 42 49 43 50 44 51 67 52 80 53 87 54 68 55 75 56 82 57 69 58
REMARK SMILES IDX 81 59 74 60 88 61 76 62 77 63 78 64 79 65 83 67 84 68 85 69
REMARK SMILES IDX 86 70 70 72 71 73 72 74 73 75 45 77 46 78 58 79 65 80 47 81
REMARK SMILES IDX 53 82 60 83 52 84 66 85 59 86 48 87 49 88 50 89 51 90 54 92
REMARK SMILES IDX 55 93 56 94 57 95 61 97 62 98 63 99 64 100 89 102 102 103
REMARK SMILES IDX 109 104 90 105 97 106 104 107 91 108 103 109 96 110 110 111
REMARK SMILES IDX 98 112 99 113 100 114 101 115 105 117 106 118 107 119
REMARK SMILES IDX 108 120 92 122 93 123 94 124 95 125
REMARK H PARENT 32 7 19 13 1 31 1 32 22 35 29 42 79 66 86 71 73 76 51 91 57 96
REMARK H PARENT 64 101 101 116 108 121 95 126
REMARK Flexibility Score: inf
ROOT
ATOM      1  C   UNL     1      21.913  -2.104  16.971  1.00  0.00     0.002 C 
ENDROOT
BRANCH   1   2
ATOM      2  C   UNL     1      20.786  -2.645  16.186  1.00  0.00     0.021 C 
BRANCH   2   3
ATOM      3  C   UNL     1      20.390  -4.066  16.497  1.00  0.00     0.116 C 
BRANCH   3   4
ATOM      4  N   UNL     1      19.034  -4.300  16.094  1.00  0.00    -0.354 N 
ATOM      5  C   UNL     1      17.887  -4.313  16.924  1.00  0.00     0.244 C 
ATOM      6  O   UNL     1      18.062  -4.104  18.136  1.00  0.00    -0.273 OA
ATOM      7  H   UNL     1      18.866  -4.483  15.055  1.00  0.00     0.163 HD
BRANCH   5   8
ATOM      8  C   UNL     1      16.524  -4.571  16.304  1.00  0.00     0.191 C 
BRANCH   8   9
ATOM      9  C   UNL     1      15.809  -3.305  16.053  1.00  0.00     0.151 C 
BRANCH   9  10
ATOM     10  N   UNL     1      16.587  -2.136  15.794  1.00  0.00    -0.349 N 
ATOM     11  O   UNL     1      15.733  -1.323  13.734  1.00  0.00    -0.269 OA
ATOM     12  C   UNL     1      16.525  -1.247  14.721  1.00  0.00     0.251 C 
ATOM     13  H   UNL     1      17.325  -1.908  16.535  1.00  0.00     0.163 HD
BRANCH  12  14
ATOM     14  C   UNL     1      17.436  -0.099  14.666  1.00  0.00     0.040 A 
ATOM     15  C   UNL     1      17.482   0.732  13.586  1.00  0.00     0.014 A 
ATOM     16  C   UNL     1      18.273   0.114  15.763  1.00  0.00     0.021 A 
ATOM     17  C   UNL     1      18.375   1.775  13.609  1.00  0.00     0.001 A 
ATOM     18  C   UNL     1      19.178   1.177  15.774  1.00  0.00    -0.010 A 
ATOM     19  C   UNL     1      19.211   2.007  14.668  1.00  0.00     0.007 A 
BRANCH  18  20
ATOM     20  C   UNL     1      20.070   1.386  16.934  1.00  0.00     0.265 C 
BRANCH  20  21
ATOM     21  O   UNL     1      19.414   1.874  18.037  1.00  0.00    -0.488 OA
BRANCH  21  22
ATOM     22  C   UNL     1      19.920   2.236  19.258  1.00  0.00     0.132 A 
ATOM     23  C   UNL     1      19.016   2.502  20.290  1.00  0.00     0.081 A 
ATOM     24  C   UNL     1      21.285   2.336  19.459  1.00  0.00     0.047 A 
ATOM     25  C   UNL     1      19.502   2.868  21.517  1.00  0.00     0.018 A 
ATOM     26  C   UNL     1      21.741   2.706  20.703  1.00  0.00     0.004 A 
ATOM     27  C   UNL     1      20.850   2.971  21.728  1.00  0.00     0.001 A 
BRANCH  23  28
ATOM     28  C   UNL     1      17.559   2.380  20.064  1.00  0.00     0.252 C 
ATOM     29  N   UNL     1      17.141   2.386  18.707  1.00  0.00    -0.365 N 
ATOM     30  O   UNL     1      16.827   2.281  21.057  1.00  0.00    -0.269 OA
ATOM     31  H   UNL     1      17.283   1.495  18.148  1.00  0.00     0.159 HD
ATOM     32  H   UNL     1      16.714   3.212  18.261  1.00  0.00     0.159 HD
ENDBRANCH  23  28
ENDBRANCH  21  22
ENDBRANCH  20  21
ENDBRANCH  18  20
ENDBRANCH  12  14
ENDBRANCH   9  10
ENDBRANCH   8   9
BRANCH   8  33
ATOM     33  N   UNL     1      16.675  -5.389  15.153  1.00  0.00    -0.336 N 
ATOM     34  C   UNL     1      15.777  -6.310  14.587  1.00  0.00     0.287 C 
ATOM     35  H   UNL     1      17.606  -5.298  14.600  1.00  0.00     0.164 HD
ATOM     36  O   UNL     1      14.646  -6.571  15.049  1.00  0.00    -0.266 OA
BRANCH  34  37
ATOM     37  C   UNL     1      16.164  -7.047  13.352  1.00  0.00     0.196 A 
ATOM     38  N   UNL     1      16.887  -8.177  13.313  1.00  0.00    -0.232 NA
ATOM     39  N   UNL     1      15.880  -6.722  12.091  1.00  0.00    -0.341 N 
ATOM     40  C   UNL     1      17.069  -8.577  12.045  1.00  0.00     0.131 A 
ATOM     41  C   UNL     1      16.415  -7.630  11.273  1.00  0.00     0.104 A 
ATOM     42  H   UNL     1      15.313  -5.869  11.807  1.00  0.00     0.168 HD
ENDBRANCH  34  37
ENDBRANCH   8  33
ENDBRANCH   5   8
ENDBRANCH   3   4
ENDBRANCH   2   3
ENDBRANCH   1   2
BRANCH   1  43
ATOM     43  C   UNL     1      22.745  -1.030  16.403  1.00  0.00     0.000 C 
BRANCH  43  44
ATOM     44  C   UNL     1      23.775  -0.407  17.269  1.00  0.00     0.000 C 
BRANCH  44  45
ATOM     45  C   UNL     1      23.869   1.101  17.063  1.00  0.00     0.000 C 
BRANCH  45  46
ATOM     46  C   UNL     1      24.815   1.711  18.093  1.00  0.00     0.000 C 
BRANCH  46  47
ATOM     47  C   UNL     1      24.924   3.190  17.921  1.00  0.00     0.000 C 
BRANCH  47  48
ATOM     48  C   UNL     1      24.996   4.021  19.159  1.00  0.00     0.000 C 
BRANCH  48  49
ATOM     49  C   UNL     1      25.278   5.436  19.025  1.00  0.00     0.001 C 
BRANCH  49  50
ATOM     50  C   UNL     1      25.965   6.282  18.216  1.00  0.00     0.009 C 
BRANCH  50  51
ATOM     51  C   UNL     1      26.372   7.684  17.807  1.00  0.00    -0.012 C 
BRANCH  51  52
ATOM     52  C   UNL     1      25.694   8.615  18.761  1.00  0.00    -0.018 C 
ATOM     53  C   UNL     1      25.845  10.067  18.409  1.00  0.00     0.033 C 
ATOM     54  C   UNL     1      24.183   8.597  18.715  1.00  0.00     0.033 C 
ATOM     55  C   UNL     1      25.878   8.455  20.243  1.00  0.00     0.033 C 
ATOM     56  C   UNL     1      25.038  11.034  19.259  1.00  0.00     0.101 C 
ATOM     57  C   UNL     1      23.437   9.509  19.612  1.00  0.00     0.101 C 
ATOM     58  C   UNL     1      25.269   9.601  21.074  1.00  0.00     0.101 C 
ATOM     59  C   UNL     1      23.567  10.900  19.123  1.00  0.00     0.051 C 
ATOM     60  C   UNL     1      25.581  10.962  20.657  1.00  0.00     0.051 C 
ATOM     61  C   UNL     1      23.761   9.516  21.074  1.00  0.00     0.051 C 
BRANCH  56  62
ATOM     62  S   UNL     1      25.393  12.694  18.669  1.00  0.00     0.270 S 
ATOM     63  O   UNL     1      25.295  13.669  19.814  1.00  0.00    -0.199 OA
ATOM     64  O   UNL     1      26.743  12.703  18.063  1.00  0.00    -0.199 OA
BRANCH  62  65
ATOM     65  O   UNL     1      24.284  13.116  17.496  1.00  0.00    -0.285 OA
ATOM     66  H   UNL     1      23.471  13.539  17.872  1.00  0.00     0.234 HD
ENDBRANCH  62  65
ENDBRANCH  56  62
BRANCH  57  67
ATOM     67  S   UNL     1      21.715   9.025  19.526  1.00  0.00     0.270 S 
ATOM     68  O   UNL     1      20.895   9.894  20.464  1.00  0.00    -0.199 OA
ATOM     69  O   UNL     1      21.530   7.619  20.031  1.00  0.00    -0.199 OA
BRANCH  67  70
ATOM     70  O   UNL     1      21.063   9.157  18.011  1.00  0.00    -0.285 OA
ATOM     71  H   UNL     1      20.096   8.924  18.045  1.00  0.00     0.234 HD
ENDBRANCH  67  70
ENDBRANCH  57  67
BRANCH  58  72
ATOM     72  S   UNL     1      25.843   9.370  22.757  1.00  0.00     0.270 S 
ATOM     73  O   UNL     1      25.030  10.225  23.682  1.00  0.00    -0.199 OA
ATOM     74  O   UNL     1      27.279   9.797  22.833  1.00  0.00    -0.199 OA
BRANCH  72  75
ATOM     75  O   UNL     1      25.628   7.778  23.213  1.00  0.00    -0.285 OA
ATOM     76  H   UNL     1      24.737   7.735  23.673  1.00  0.00     0.234 HD
ENDBRANCH  72  75
ENDBRANCH  58  72
ENDBRANCH  51  52
BRANCH  51  77
ATOM     77  C   UNL     1      27.878   7.729  17.660  1.00  0.00    -0.018 C 
ATOM     78  C   UNL     1      28.564   8.953  17.246  1.00  0.00     0.033 C 
ATOM     79  C   UNL     1      28.464   6.397  17.273  1.00  0.00     0.033 C 
ATOM     80  C   UNL     1      28.601   7.693  19.056  1.00  0.00     0.033 C 
ATOM     81  C   UNL     1      30.087   8.777  17.029  1.00  0.00     0.101 C 
ATOM     82  C   UNL     1      29.914   6.421  16.890  1.00  0.00     0.101 C 
ATOM     83  C   UNL     1      30.095   7.490  18.956  1.00  0.00     0.101 C 
ATOM     84  C   UNL     1      30.385   7.608  16.146  1.00  0.00     0.051 C 
ATOM     85  C   UNL     1      30.765   8.747  18.354  1.00  0.00     0.051 C 
ATOM     86  C   UNL     1      30.662   6.372  18.255  1.00  0.00     0.051 C 
BRANCH  81  87
ATOM     87  S   UNL     1      30.722  10.238  16.210  1.00  0.00     0.270 S 
ATOM     88  O   UNL     1      31.768  10.904  17.025  1.00  0.00    -0.199 OA
ATOM     89  O   UNL     1      31.288   9.882  14.861  1.00  0.00    -0.199 OA
BRANCH  87  90
ATOM     90  O   UNL     1      29.418  11.283  16.038  1.00  0.00    -0.285 OA
ATOM     91  H   UNL     1      28.830  11.055  15.301  1.00  0.00     0.234 HD
ENDBRANCH  87  90
ENDBRANCH  81  87
BRANCH  82  92
ATOM     92  S   UNL     1      30.319   4.949  16.004  1.00  0.00     0.270 S 
ATOM     93  O   UNL     1      29.077   4.193  15.595  1.00  0.00    -0.199 OA
ATOM     94  O   UNL     1      31.100   4.039  16.944  1.00  0.00    -0.199 OA
BRANCH  92  95
ATOM     95  O   UNL     1      31.270   5.193  14.670  1.00  0.00    -0.285 OA
ATOM     96  H   UNL     1      32.240   5.097  14.848  1.00  0.00     0.234 HD
ENDBRANCH  92  95
ENDBRANCH  82  92
BRANCH  83  97
ATOM     97  S   UNL     1      30.655   7.405  20.670  1.00  0.00     0.270 S 
ATOM     98  O   UNL     1      30.748   6.001  21.140  1.00  0.00    -0.199 OA
ATOM     99  O   UNL     1      32.048   7.984  20.676  1.00  0.00    -0.199 OA
BRANCH  97 100
ATOM    100  O   UNL     1      29.679   8.359  21.625  1.00  0.00    -0.285 OA
ATOM    101  H   UNL     1      29.993   8.272  22.552  1.00  0.00     0.234 HD
ENDBRANCH  97 100
ENDBRANCH  83  97
ENDBRANCH  51  77
BRANCH  51 102
ATOM    102  C   UNL     1      25.836   7.847  16.356  1.00  0.00    -0.018 C 
ATOM    103  C   UNL     1      26.642   8.704  15.495  1.00  0.00     0.033 C 
ATOM    104  C   UNL     1      25.643   6.479  15.697  1.00  0.00     0.033 C 
ATOM    105  C   UNL     1      24.454   8.301  16.189  1.00  0.00     0.033 C 
ATOM    106  C   UNL     1      26.304   8.681  13.992  1.00  0.00     0.101 C 
ATOM    107  C   UNL     1      25.319   6.591  14.204  1.00  0.00     0.101 C 
ATOM    108  C   UNL     1      24.030   8.448  14.721  1.00  0.00     0.101 C 
ATOM    109  C   UNL     1      26.361   7.309  13.436  1.00  0.00     0.051 C 
ATOM    110  C   UNL     1      24.903   9.221  13.836  1.00  0.00     0.051 C 
ATOM    111  C   UNL     1      23.930   7.094  14.054  1.00  0.00     0.051 C 
BRANCH 106 112
ATOM    112  S   UNL     1      27.486   9.787  13.238  1.00  0.00     0.270 S 
ATOM    113  O   UNL     1      28.814   9.141  13.109  1.00  0.00    -0.199 OA
ATOM    114  O   UNL     1      27.528  11.019  14.109  1.00  0.00    -0.199 OA
BRANCH 112 115
ATOM    115  O   UNL     1      26.838  10.264  11.757  1.00  0.00    -0.285 OA
ATOM    116  H   UNL     1      27.475  10.141  11.016  1.00  0.00     0.234 HD
ENDBRANCH 112 115
ENDBRANCH 106 112
BRANCH 107 117
ATOM    117  S   UNL     1      25.263   4.938  13.487  1.00  0.00     0.270 S 
ATOM    118  O   UNL     1      24.351   4.153  14.441  1.00  0.00    -0.199 OA
ATOM    119  O   UNL     1      24.594   5.009  12.175  1.00  0.00    -0.199 OA
BRANCH 117 120
ATOM    120  O   UNL     1      26.752   4.209  13.500  1.00  0.00    -0.285 OA
ATOM    121  H   UNL     1      26.738   3.420  14.074  1.00  0.00     0.234 HD
ENDBRANCH 117 120
ENDBRANCH 107 117
BRANCH 108 122
ATOM    122  S   UNL     1      22.396   9.144  14.717  1.00  0.00     0.270 S 
ATOM    123  O   UNL     1      21.965   9.575  13.346  1.00  0.00    -0.199 OA
ATOM    124  O   UNL     1      21.413   8.107  15.232  1.00  0.00    -0.199 OA
BRANCH 122 125
ATOM    125  O   UNL     1      22.333  10.470  15.729  1.00  0.00    -0.285 OA
ATOM    126  H   UNL     1      23.253  10.833  15.809  1.00  0.00     0.234 HD
ENDBRANCH 122 125
ENDBRANCH 108 122
ENDBRANCH  51 102
ENDBRANCH  50  51
ENDBRANCH  49  50
ENDBRANCH  48  49
ENDBRANCH  47  48
ENDBRANCH  46  47
ENDBRANCH  45  46
ENDBRANCH  44  45
ENDBRANCH  43  44
ENDBRANCH   1  43
TORSDOF 43
ENDMDL
MODEL 3
REMARK VINA RESULT:    -9.969      1.490      6.708
REMARK INTER + INTRA:         -41.769
REMARK INTER:                 -32.936
REMARK INTRA:                  -8.833
REMARK UNBOUND:                -9.362
REMARK SMILES NC(=O)c1ccccc1OCc1cccc(C(=O)NC[C@@H](NC(=O)c2ncc[nH]2)C(=O)NCCCCCCCCCCCC([C@]23C[C@]4(S(=O)(=O)O)C[C@](S(=O)(=O)O)(C2)C[C@](S(=O)(=O)O)(C3)C4)([C@]23C[C@]4(S(=O)(=O)O)C[C@](S(=O)(=O)O)(C2)C[C@](S(=O)(=O)O)(C3)C4)[C@]23C[C@]4(S(=O)(=O)O)C[C@](S(=O)(=O)O)(C2)C[C@](S(=O)(=O)O)(C3)C4)c1
REMARK SMILES IDX 35 1 34 2 33 3 32 4 30 5 31 6 21 8 20 9 19 10 18 11 17 12
REMARK SMILES IDX 16 14 15 15 111 16 14 17 12 18 13 19 11 20 10 21 9 22 4 23
REMARK SMILES IDX 8 24 5 25 7 26 6 27 2 28 1 29 3 30 22 33 23 34 24 36 25 37
REMARK SMILES IDX 26 38 29 39 27 40 28 41 36 43 37 44 38 45 39 46 40 47 41 48
REMARK SMILES IDX 42 49 43 50 44 51 67 52 80 53 87 54 68 55 75 56 82 57 69 58
REMARK SMILES IDX 81 59 74 60 88 61 76 62 77 63 78 64 79 65 83 67 84 68 85 69
REMARK SMILES IDX 86 70 70 72 71 73 72 74 73 75 45 77 46 78 58 79 65 80 47 81
REMARK SMILES IDX 53 82 60 83 52 84 66 85 59 86 48 87 49 88 50 89 51 90 54 92
REMARK SMILES IDX 55 93 56 94 57 95 61 97 62 98 63 99 64 100 89 102 102 103
REMARK SMILES IDX 109 104 90 105 97 106 104 107 91 108 103 109 96 110 110 111
REMARK SMILES IDX 98 112 99 113 100 114 101 115 105 117 106 118 107 119
REMARK SMILES IDX 108 120 92 122 93 123 94 124 95 125
REMARK H PARENT 32 7 19 13 1 31 1 32 22 35 29 42 79 66 86 71 73 76 51 91 57 96
REMARK H PARENT 64 101 101 116 108 121 95 126
REMARK Flexibility Score: inf
ROOT
ATOM      1  C   UNL     1      22.131  -2.029  17.141  1.00  0.00     0.002 C 
ENDROOT
BRANCH   1   2
ATOM      2  C   UNL     1      20.945  -2.558  16.440  1.00  0.00     0.021 C 
BRANCH   2   3
ATOM      3  C   UNL     1      20.566  -3.979  16.769  1.00  0.00     0.116 C 
BRANCH   3   4
ATOM      4  N   UNL     1      19.226  -4.247  16.335  1.00  0.00    -0.354 N 
ATOM      5  C   UNL     1      18.042  -4.138  17.104  1.00  0.00     0.244 C 
ATOM      6  O   UNL     1      18.165  -3.777  18.285  1.00  0.00    -0.273 OA
ATOM      7  H   UNL     1      19.102  -4.561  15.321  1.00  0.00     0.163 HD
BRANCH   5   8
ATOM      8  C   UNL     1      16.704  -4.456  16.457  1.00  0.00     0.191 C 
BRANCH   8   9
ATOM      9  C   UNL     1      16.062  -3.233  15.941  1.00  0.00     0.151 C 
BRANCH   9  10
ATOM     10  N   UNL     1      16.893  -2.107  15.659  1.00  0.00    -0.349 N 
ATOM     11  O   UNL     1      15.845  -1.070  13.800  1.00  0.00    -0.269 OA
ATOM     12  C   UNL     1      16.765  -1.133  14.670  1.00  0.00     0.251 C 
ATOM     13  H   UNL     1      17.739  -1.994  16.305  1.00  0.00     0.163 HD
BRANCH  12  14
ATOM     14  C   UNL     1      17.752  -0.054  14.570  1.00  0.00     0.040 A 
ATOM     15  C   UNL     1      17.933   0.653  13.418  1.00  0.00     0.014 A 
ATOM     16  C   UNL     1      18.521   0.225  15.702  1.00  0.00     0.021 A 
ATOM     17  C   UNL     1      18.891   1.637  13.405  1.00  0.00     0.001 A 
ATOM     18  C   UNL     1      19.492   1.227  15.676  1.00  0.00    -0.010 A 
ATOM     19  C   UNL     1      19.662   1.931  14.497  1.00  0.00     0.007 A 
BRANCH  18  20
ATOM     20  C   UNL     1      20.310   1.505  16.876  1.00  0.00     0.265 C 
BRANCH  20  21
ATOM     21  O   UNL     1      19.566   1.928  17.949  1.00  0.00    -0.488 OA
BRANCH  21  22
ATOM     22  C   UNL     1      19.980   2.283  19.206  1.00  0.00     0.132 A 
ATOM     23  C   UNL     1      19.003   2.610  20.151  1.00  0.00     0.081 A 
ATOM     24  C   UNL     1      21.325   2.318  19.528  1.00  0.00     0.047 A 
ATOM     25  C   UNL     1      19.397   2.971  21.412  1.00  0.00     0.018 A 
ATOM     26  C   UNL     1      21.688   2.684  20.803  1.00  0.00     0.004 A 
ATOM     27  C   UNL     1      20.724   3.009  21.741  1.00  0.00     0.001 A 
BRANCH  23  28
ATOM     28  C   UNL     1      17.567   2.558  19.797  1.00  0.00     0.252 C 
ATOM     29  N   UNL     1      17.263   2.002  18.527  1.00  0.00    -0.365 N 
ATOM     30  O   UNL     1      16.754   2.993  20.622  1.00  0.00    -0.269 OA
ATOM     31  H   UNL     1      17.305   0.945  18.432  1.00  0.00     0.159 HD
ATOM     32  H   UNL     1      17.009   2.582  17.713  1.00  0.00     0.159 HD
ENDBRANCH  23  28
ENDBRANCH  21  22
ENDBRANCH  20  21
ENDBRANCH  18  20
ENDBRANCH  12  14
ENDBRANCH   9  10
ENDBRANCH   8   9
BRANCH   8  33
ATOM     33  N   UNL     1      16.881  -5.474  15.482  1.00  0.00    -0.336 N 
ATOM     34  C   UNL     1      15.919  -6.284  14.851  1.00  0.00     0.287 C 
ATOM     35  H   UNL     1      17.895  -5.666  15.144  1.00  0.00     0.164 HD
ATOM     36  O   UNL     1      14.692  -6.233  15.079  1.00  0.00    -0.266 OA
BRANCH  34  37
ATOM     37  C   UNL     1      16.355  -7.284  13.837  1.00  0.00     0.196 A 
ATOM     38  N   UNL     1      15.613  -7.726  12.810  1.00  0.00    -0.232 NA
ATOM     39  N   UNL     1      17.528  -7.914  13.772  1.00  0.00    -0.341 N 
ATOM     40  C   UNL     1      16.295  -8.631  12.091  1.00  0.00     0.131 A 
ATOM     41  C   UNL     1      17.523  -8.739  12.723  1.00  0.00     0.104 A 
ATOM     42  H   UNL     1      18.326  -7.764  14.458  1.00  0.00     0.168 HD
ENDBRANCH  34  37
ENDBRANCH   8  33
ENDBRANCH   5   8
ENDBRANCH   3   4
ENDBRANCH   2   3
ENDBRANCH   1   2
BRANCH   1  43
ATOM     43  C   UNL     1      22.866  -0.890  16.567  1.00  0.00     0.000 C 
BRANCH  43  44
ATOM     44  C   UNL     1      23.959  -0.285  17.365  1.00  0.00     0.000 C 
BRANCH  44  45
ATOM     45  C   UNL     1      24.065   1.222  17.154  1.00  0.00     0.000 C 
BRANCH  45  46
ATOM     46  C   UNL     1      24.770   1.868  18.343  1.00  0.00     0.000 C 
BRANCH  46  47
ATOM     47  C   UNL     1      24.927   3.340  18.146  1.00  0.00     0.000 C 
BRANCH  47  48
ATOM     48  C   UNL     1      24.934   4.198  19.367  1.00  0.00     0.000 C 
BRANCH  48  49
ATOM     49  C   UNL     1      25.325   5.587  19.233  1.00  0.00     0.001 C 
BRANCH  49  50
ATOM     50  C   UNL     1      25.943   6.405  18.343  1.00  0.00     0.009 C 
BRANCH  50  51
ATOM     51  C   UNL     1      26.325   7.793  17.866  1.00  0.00    -0.012 C 
BRANCH  51  52
ATOM     52  C   UNL     1      25.595   8.757  18.745  1.00  0.00    -0.018 C 
ATOM     53  C   UNL     1      24.105   8.569  18.753  1.00  0.00     0.033 C 
ATOM     54  C   UNL     1      25.788   8.549  20.231  1.00  0.00     0.033 C 
ATOM     55  C   UNL     1      25.897  10.227  18.681  1.00  0.00     0.033 C 
ATOM     56  C   UNL     1      23.343   9.421  19.755  1.00  0.00     0.101 C 
ATOM     57  C   UNL     1      25.079   9.448  21.169  1.00  0.00     0.101 C 
ATOM     58  C   UNL     1      24.932  11.098  19.509  1.00  0.00     0.101 C 
ATOM     59  C   UNL     1      23.637   9.116  21.177  1.00  0.00     0.051 C 
ATOM     60  C   UNL     1      23.506  10.854  19.340  1.00  0.00     0.051 C 
ATOM     61  C   UNL     1      25.197  10.929  20.986  1.00  0.00     0.051 C 
BRANCH  56  62
ATOM     62  S   UNL     1      21.597   9.040  19.567  1.00  0.00     0.270 S 
ATOM     63  O   UNL     1      21.361   7.585  19.880  1.00  0.00    -0.199 OA
ATOM     64  O   UNL     1      20.820   9.921  20.468  1.00  0.00    -0.199 OA
BRANCH  62  65
ATOM     65  O   UNL     1      21.128   9.345  17.996  1.00  0.00    -0.285 OA
ATOM     66  H   UNL     1      20.154   9.511  17.912  1.00  0.00     0.234 HD
ENDBRANCH  62  65
ENDBRANCH  56  62
BRANCH  57  67
ATOM     67  S   UNL     1      25.754   9.131  22.798  1.00  0.00     0.270 S 
ATOM     68  O   UNL     1      24.942   9.884  23.840  1.00  0.00    -0.199 OA
ATOM     69  O   UNL     1      27.149   9.683  22.914  1.00  0.00    -0.199 OA
BRANCH  67  70
ATOM     70  O   UNL     1      25.757   7.530  23.215  1.00  0.00    -0.285 OA
ATOM     71  H   UNL     1      25.652   6.975  22.396  1.00  0.00     0.234 HD
ENDBRANCH  67  70
ENDBRANCH  57  67
BRANCH  58  72
ATOM     72  S   UNL     1      25.280  12.802  19.068  1.00  0.00     0.270 S 
ATOM     73  O   UNL     1      26.024  12.837  17.768  1.00  0.00    -0.199 OA
ATOM     74  O   UNL     1      26.139  13.404  20.139  1.00  0.00    -0.199 OA
BRANCH  72  75
ATOM     75  O   UNL     1      23.846  13.634  18.858  1.00  0.00    -0.285 OA
ATOM     76  H   UNL     1      24.099  14.566  18.585  1.00  0.00     0.234 HD
ENDBRANCH  72  75
ENDBRANCH  58  72
ENDBRANCH  51  52
BRANCH  51  77
ATOM     77  C   UNL     1      27.832   7.872  17.758  1.00  0.00    -0.018 C 
ATOM     78  C   UNL     1      28.503   9.117  17.384  1.00  0.00     0.033 C 
ATOM     79  C   UNL     1      28.456   6.560  17.363  1.00  0.00     0.033 C 
ATOM     80  C   UNL     1      28.520   7.826  19.171  1.00  0.00     0.033 C 
ATOM     81  C   UNL     1      30.034   8.977  17.203  1.00  0.00     0.101 C 
ATOM     82  C   UNL     1      29.914   6.620  17.018  1.00  0.00     0.101 C 
ATOM     83  C   UNL     1      30.021   7.656  19.107  1.00  0.00     0.101 C 
ATOM     84  C   UNL     1      30.379   7.831  16.307  1.00  0.00     0.051 C 
ATOM     85  C   UNL     1      30.678   8.936  18.544  1.00  0.00     0.051 C 
ATOM     86  C   UNL     1      30.628   6.562  18.401  1.00  0.00     0.051 C 
BRANCH  81  87
ATOM     87  S   UNL     1      30.658  10.465  16.427  1.00  0.00     0.270 S 
ATOM     88  O   UNL     1      31.911  10.930  17.074  1.00  0.00    -0.199 OA
ATOM     89  O   UNL     1      30.909  10.230  14.961  1.00  0.00    -0.199 OA
BRANCH  87  90
ATOM     90  O   UNL     1      29.472  11.636  16.635  1.00  0.00    -0.285 OA
ATOM     91  H   UNL     1      29.658  12.467  16.169  1.00  0.00     0.234 HD
ENDBRANCH  87  90
ENDBRANCH  81  87
BRANCH  82  92
ATOM     92  S   UNL     1      30.373   5.174  16.117  1.00  0.00     0.270 S 
ATOM     93  O   UNL     1      29.168   4.326  15.787  1.00  0.00    -0.199 OA
ATOM     94  O   UNL     1      31.273   4.332  17.013  1.00  0.00    -0.199 OA
BRANCH  92  95
ATOM     95  O   UNL     1      31.223   5.474  14.727  1.00  0.00    -0.285 OA
ATOM     96  H   UNL     1      30.892   4.971  13.940  1.00  0.00     0.234 HD
ENDBRANCH  92  95
ENDBRANCH  82  92
BRANCH  83  97
ATOM     97  S   UNL     1      30.538   7.551  20.833  1.00  0.00     0.270 S 
ATOM     98  O   UNL     1      30.599   6.143  21.295  1.00  0.00    -0.199 OA
ATOM     99  O   UNL     1      31.939   8.109  20.876  1.00  0.00    -0.199 OA
BRANCH  97 100
ATOM    100  O   UNL     1      29.554   8.513  21.771  1.00  0.00    -0.285 OA
ATOM    101  H   UNL     1      29.951   9.412  21.795  1.00  0.00     0.234 HD
ENDBRANCH  97 100
ENDBRANCH  83  97
ENDBRANCH  51  77
BRANCH  51 102
ATOM    102  C   UNL     1      25.827   7.858  16.394  1.00  0.00    -0.018 C 
ATOM    103  C   UNL     1      26.674   8.630  15.491  1.00  0.00     0.033 C 
ATOM    104  C   UNL     1      25.617   6.448  15.834  1.00  0.00     0.033 C 
ATOM    105  C   UNL     1      24.461   8.328  16.157  1.00  0.00     0.033 C 
ATOM    106  C   UNL     1      26.371   8.501  13.986  1.00  0.00     0.101 C 
ATOM    107  C   UNL     1      25.332   6.455  14.328  1.00  0.00     0.101 C 
ATOM    108  C   UNL     1      24.076   8.374  14.672  1.00  0.00     0.101 C 
ATOM    109  C   UNL     1      26.409   7.091  13.536  1.00  0.00     0.051 C 
ATOM    110  C   UNL     1      24.988   9.058  13.754  1.00  0.00     0.051 C 
ATOM    111  C   UNL     1      23.960   6.976  14.106  1.00  0.00     0.051 C 
BRANCH 106 112
ATOM    112  S   UNL     1      27.596   9.521  13.182  1.00  0.00     0.270 S 
ATOM    113  O   UNL     1      27.096  10.033  11.883  1.00  0.00    -0.199 OA
ATOM    114  O   UNL     1      28.826   8.659  13.024  1.00  0.00    -0.199 OA
BRANCH 112 115
ATOM    115  O   UNL     1      28.002  10.749  14.263  1.00  0.00    -0.285 OA
ATOM    116  H   UNL     1      27.303  11.439  14.321  1.00  0.00     0.234 HD
ENDBRANCH 112 115
ENDBRANCH 106 112
BRANCH 107 117
ATOM    117  S   UNL     1      25.254   4.754  13.736  1.00  0.00     0.270 S 
ATOM    118  O   UNL     1      24.599   4.875  12.352  1.00  0.00    -0.199 OA
ATOM    119  O   UNL     1      26.628   4.252  13.546  1.00  0.00    -0.199 OA
BRANCH 117 120
ATOM    120  O   UNL     1      24.266   3.816  14.681  1.00  0.00    -0.285 OA
ATOM    121  H   UNL     1      23.478   3.540  14.177  1.00  0.00     0.234 HD
ENDBRANCH 117 120
ENDBRANCH 107 117
BRANCH 108 122
ATOM    122  S   UNL     1      22.459   9.103  14.575  1.00  0.00     0.270 S 
ATOM    123  O   UNL     1      22.454  10.535  15.021  1.00  0.00    -0.199 OA
ATOM    124  O   UNL     1      21.972   9.040  13.137  1.00  0.00    -0.199 OA
BRANCH 122 125
ATOM    125  O   UNL     1      21.386   8.252  15.527  1.00  0.00    -0.285 OA
ATOM    126  H   UNL     1      21.908   7.789  16.233  1.00  0.00     0.234 HD
ENDBRANCH 122 125
ENDBRANCH 108 122
ENDBRANCH  51 102
ENDBRANCH  50  51
ENDBRANCH  49  50
ENDBRANCH  48  49
ENDBRANCH  47  48
ENDBRANCH  46  47
ENDBRANCH  45  46
ENDBRANCH  44  45
ENDBRANCH  43  44
ENDBRANCH   1  43
TORSDOF 43
ENDMDL
MODEL 4
REMARK VINA RESULT:    -9.882      1.505      4.670
REMARK INTER + INTRA:         -41.486
REMARK INTER:                 -33.408
REMARK INTRA:                  -8.078
REMARK UNBOUND:                -9.362
REMARK SMILES NC(=O)c1ccccc1OCc1cccc(C(=O)NC[C@@H](NC(=O)c2ncc[nH]2)C(=O)NCCCCCCCCCCCC([C@]23C[C@]4(S(=O)(=O)O)C[C@](S(=O)(=O)O)(C2)C[C@](S(=O)(=O)O)(C3)C4)([C@]23C[C@]4(S(=O)(=O)O)C[C@](S(=O)(=O)O)(C2)C[C@](S(=O)(=O)O)(C3)C4)[C@]23C[C@]4(S(=O)(=O)O)C[C@](S(=O)(=O)O)(C2)C[C@](S(=O)(=O)O)(C3)C4)c1
REMARK SMILES IDX 35 1 34 2 33 3 32 4 30 5 31 6 21 8 20 9 19 10 18 11 17 12
REMARK SMILES IDX 16 14 15 15 111 16 14 17 12 18 13 19 11 20 10 21 9 22 4 23
REMARK SMILES IDX 8 24 5 25 7 26 6 27 2 28 1 29 3 30 22 33 23 34 24 36 25 37
REMARK SMILES IDX 26 38 29 39 27 40 28 41 36 43 37 44 38 45 39 46 40 47 41 48
REMARK SMILES IDX 42 49 43 50 44 51 67 52 80 53 87 54 68 55 75 56 82 57 69 58
REMARK SMILES IDX 81 59 74 60 88 61 76 62 77 63 78 64 79 65 83 67 84 68 85 69
REMARK SMILES IDX 86 70 70 72 71 73 72 74 73 75 45 77 46 78 58 79 65 80 47 81
REMARK SMILES IDX 53 82 60 83 52 84 66 85 59 86 48 87 49 88 50 89 51 90 54 92
REMARK SMILES IDX 55 93 56 94 57 95 61 97 62 98 63 99 64 100 89 102 102 103
REMARK SMILES IDX 109 104 90 105 97 106 104 107 91 108 103 109 96 110 110 111
REMARK SMILES IDX 98 112 99 113 100 114 101 115 105 117 106 118 107 119
REMARK SMILES IDX 108 120 92 122 93 123 94 124 95 125
REMARK H PARENT 32 7 19 13 1 31 1 32 22 35 29 42 79 66 86 71 73 76 51 91 57 96
REMARK H PARENT 64 101 101 116 108 121 95 126
REMARK Flexibility Score: inf
ROOT
ATOM      1  C   UNL     1      21.917  -2.010  17.072  1.00  0.00     0.002 C 
ENDROOT
BRANCH   1   2
ATOM      2  C   UNL     1      20.895  -2.696  16.257  1.00  0.00     0.021 C 
BRANCH   2   3
ATOM      3  C   UNL     1      20.414  -4.023  16.785  1.00  0.00     0.116 C 
BRANCH   3   4
ATOM      4  N   UNL     1      19.077  -4.278  16.336  1.00  0.00    -0.354 N 
ATOM      5  C   UNL     1      17.887  -4.171  17.096  1.00  0.00     0.244 C 
ATOM      6  O   UNL     1      18.001  -3.822  18.282  1.00  0.00    -0.273 OA
ATOM      7  H   UNL     1      18.961  -4.582  15.318  1.00  0.00     0.163 HD
BRANCH   5   8
ATOM      8  C   UNL     1      16.553  -4.475  16.434  1.00  0.00     0.191 C 
BRANCH   8   9
ATOM      9  C   UNL     1      15.913  -3.241  15.942  1.00  0.00     0.151 C 
BRANCH   9  10
ATOM     10  N   UNL     1      16.747  -2.112  15.678  1.00  0.00    -0.349 N 
ATOM     11  O   UNL     1      15.799  -1.140  13.732  1.00  0.00    -0.269 OA
ATOM     12  C   UNL     1      16.667  -1.167  14.656  1.00  0.00     0.251 C 
ATOM     13  H   UNL     1      17.553  -1.971  16.368  1.00  0.00     0.163 HD
BRANCH  12  14
ATOM     14  C   UNL     1      17.647  -0.079  14.584  1.00  0.00     0.040 A 
ATOM     15  C   UNL     1      17.789   0.689  13.466  1.00  0.00     0.014 A 
ATOM     16  C   UNL     1      18.449   0.143  15.705  1.00  0.00     0.021 A 
ATOM     17  C   UNL     1      18.743   1.678  13.476  1.00  0.00     0.001 A 
ATOM     18  C   UNL     1      19.415   1.151  15.703  1.00  0.00    -0.010 A 
ATOM     19  C   UNL     1      19.546   1.917  14.558  1.00  0.00     0.007 A 
BRANCH  18  20
ATOM     20  C   UNL     1      20.268   1.369  16.890  1.00  0.00     0.265 C 
BRANCH  20  21
ATOM     21  O   UNL     1      19.551   1.662  18.023  1.00  0.00    -0.488 OA
BRANCH  21  22
ATOM     22  C   UNL     1      19.989   2.156  19.224  1.00  0.00     0.132 A 
ATOM     23  C   UNL     1      19.029   2.504  20.179  1.00  0.00     0.081 A 
ATOM     24  C   UNL     1      21.339   2.306  19.480  1.00  0.00     0.047 A 
ATOM     25  C   UNL     1      19.447   3.003  21.384  1.00  0.00     0.018 A 
ATOM     26  C   UNL     1      21.726   2.810  20.700  1.00  0.00     0.004 A 
ATOM     27  C   UNL     1      20.780   3.157  21.649  1.00  0.00     0.001 A 
BRANCH  23  28
ATOM     28  C   UNL     1      17.588   2.328  19.896  1.00  0.00     0.252 C 
ATOM     29  N   UNL     1      17.227   2.290  18.524  1.00  0.00    -0.365 N 
ATOM     30  O   UNL     1      16.819   2.226  20.860  1.00  0.00    -0.269 OA
ATOM     31  H   UNL     1      17.421   1.392  17.991  1.00  0.00     0.159 HD
ATOM     32  H   UNL     1      16.791   3.091  18.041  1.00  0.00     0.159 HD
ENDBRANCH  23  28
ENDBRANCH  21  22
ENDBRANCH  20  21
ENDBRANCH  18  20
ENDBRANCH  12  14
ENDBRANCH   9  10
ENDBRANCH   8   9
BRANCH   8  33
ATOM     33  N   UNL     1      16.736  -5.470  15.437  1.00  0.00    -0.336 N 
ATOM     34  C   UNL     1      15.795  -6.343  14.863  1.00  0.00     0.287 C 
ATOM     35  H   UNL     1      17.736  -5.585  15.029  1.00  0.00     0.164 HD
ATOM     36  O   UNL     1      14.586  -6.384  15.173  1.00  0.00    -0.266 OA
BRANCH  34  37
ATOM     37  C   UNL     1      16.232  -7.302  13.810  1.00  0.00     0.196 A 
ATOM     38  N   UNL     1      15.546  -7.603  12.697  1.00  0.00    -0.232 NA
ATOM     39  N   UNL     1      17.351  -8.026  13.786  1.00  0.00    -0.341 N 
ATOM     40  C   UNL     1      16.210  -8.509  11.963  1.00  0.00     0.131 A 
ATOM     41  C   UNL     1      17.368  -8.770  12.678  1.00  0.00     0.104 A 
ATOM     42  H   UNL     1      18.098  -7.996  14.542  1.00  0.00     0.168 HD
ENDBRANCH  34  37
ENDBRANCH   8  33
ENDBRANCH   5   8
ENDBRANCH   3   4
ENDBRANCH   2   3
ENDBRANCH   1   2
BRANCH   1  43
ATOM     43  C   UNL     1      22.955  -1.205  16.408  1.00  0.00     0.000 C 
BRANCH  43  44
ATOM     44  C   UNL     1      24.042  -0.636  17.242  1.00  0.00     0.000 C 
BRANCH  44  45
ATOM     45  C   UNL     1      24.030   0.890  17.246  1.00  0.00     0.000 C 
BRANCH  45  46
ATOM     46  C   UNL     1      25.143   1.418  18.146  1.00  0.00     0.000 C 
BRANCH  46  47
ATOM     47  C   UNL     1      24.907   2.844  18.520  1.00  0.00     0.000 C 
BRANCH  47  48
ATOM     48  C   UNL     1      25.497   3.892  17.636  1.00  0.00     0.000 C 
BRANCH  48  49
ATOM     49  C   UNL     1      25.250   5.284  17.955  1.00  0.00     0.001 C 
BRANCH  49  50
ATOM     50  C   UNL     1      25.922   6.460  18.041  1.00  0.00     0.009 C 
BRANCH  50  51
ATOM     51  C   UNL     1      26.511   7.698  17.394  1.00  0.00    -0.012 C 
BRANCH  51  52
ATOM     52  C   UNL     1      27.995   7.508  17.393  1.00  0.00    -0.018 C 
ATOM     53  C   UNL     1      28.746   8.567  16.638  1.00  0.00     0.033 C 
ATOM     54  C   UNL     1      28.676   7.749  18.722  1.00  0.00     0.033 C 
ATOM     55  C   UNL     1      28.592   6.168  17.071  1.00  0.00     0.033 C 
ATOM     56  C   UNL     1      30.260   8.501  16.750  1.00  0.00     0.101 C 
ATOM     57  C   UNL     1      30.147   7.605  18.799  1.00  0.00     0.101 C 
ATOM     58  C   UNL     1      30.126   6.188  16.929  1.00  0.00     0.101 C 
ATOM     59  C   UNL     1      30.792   8.747  18.113  1.00  0.00     0.051 C 
ATOM     60  C   UNL     1      30.702   7.228  16.088  1.00  0.00     0.051 C 
ATOM     61  C   UNL     1      30.784   6.353  18.280  1.00  0.00     0.051 C 
BRANCH  56  62
ATOM     62  S   UNL     1      30.931   9.841  15.758  1.00  0.00     0.270 S 
ATOM     63  O   UNL     1      32.130  10.432  16.454  1.00  0.00    -0.199 OA
ATOM     64  O   UNL     1      31.286   9.311  14.423  1.00  0.00    -0.199 OA
BRANCH  62  65
ATOM     65  O   UNL     1      29.772  11.025  15.566  1.00  0.00    -0.285 OA
ATOM     66  H   UNL     1      30.110  11.815  15.071  1.00  0.00     0.234 HD
ENDBRANCH  62  65
ENDBRANCH  56  62
BRANCH  57  67
ATOM     67  S   UNL     1      30.581   7.655  20.536  1.00  0.00     0.270 S 
ATOM     68  O   UNL     1      30.474   6.258  21.126  1.00  0.00    -0.199 OA
ATOM     69  O   UNL     1      29.593   8.485  21.310  1.00  0.00    -0.199 OA
BRANCH  67  70
ATOM     70  O   UNL     1      32.113   8.211  20.821  1.00  0.00    -0.285 OA
ATOM     71  H   UNL     1      32.074   9.175  21.067  1.00  0.00     0.234 HD
ENDBRANCH  67  70
ENDBRANCH  57  67
BRANCH  58  72
ATOM     72  S   UNL     1      30.597   4.588  16.269  1.00  0.00     0.270 S 
ATOM     73  O   UNL     1      31.137   3.733  17.375  1.00  0.00    -0.199 OA
ATOM     74  O   UNL     1      31.670   4.794  15.242  1.00  0.00    -0.199 OA
BRANCH  72  75
ATOM     75  O   UNL     1      29.253   3.820  15.640  1.00  0.00    -0.285 OA
ATOM     76  H   UNL     1      28.626   3.675  16.411  1.00  0.00     0.234 HD
ENDBRANCH  72  75
ENDBRANCH  58  72
ENDBRANCH  51  52
BRANCH  51  77
ATOM     77  C   UNL     1      25.789   7.954  16.088  1.00  0.00    -0.018 C 
ATOM     78  C   UNL     1      26.381   8.792  15.045  1.00  0.00     0.033 C 
ATOM     79  C   UNL     1      24.291   7.922  16.237  1.00  0.00     0.033 C 
ATOM     80  C   UNL     1      25.771   6.676  15.172  1.00  0.00     0.033 C 
ATOM     81  C   UNL     1      25.447   9.043  13.835  1.00  0.00     0.101 C 
ATOM     82  C   UNL     1      23.517   8.390  15.041  1.00  0.00     0.101 C 
ATOM     83  C   UNL     1      24.859   6.806  13.974  1.00  0.00     0.101 C 
ATOM     84  C   UNL     1      24.096   9.512  14.272  1.00  0.00     0.051 C 
ATOM     85  C   UNL     1      25.437   7.831  12.972  1.00  0.00     0.051 C 
ATOM     86  C   UNL     1      23.469   7.138  14.115  1.00  0.00     0.051 C 
BRANCH  81  87
ATOM     87  S   UNL     1      26.158  10.336  12.821  1.00  0.00     0.270 S 
ATOM     88  O   UNL     1      26.151   9.964  11.385  1.00  0.00    -0.199 OA
ATOM     89  O   UNL     1      25.405  11.627  13.009  1.00  0.00    -0.199 OA
BRANCH  87  90
ATOM     90  O   UNL     1      27.749  10.511  13.330  1.00  0.00    -0.285 OA
ATOM     91  H   UNL     1      28.085   9.748  13.828  1.00  0.00     0.234 HD
ENDBRANCH  87  90
ENDBRANCH  81  87
BRANCH  82  92
ATOM     92  S   UNL     1      21.861   8.770  15.515  1.00  0.00     0.270 S 
ATOM     93  O   UNL     1      20.862   7.951  14.732  1.00  0.00    -0.199 OA
ATOM     94  O   UNL     1      21.600  10.231  15.169  1.00  0.00    -0.199 OA
BRANCH  92  95
ATOM     95  O   UNL     1      21.556   8.597  17.134  1.00  0.00    -0.285 OA
ATOM     96  H   UNL     1      21.945   9.317  17.693  1.00  0.00     0.234 HD
ENDBRANCH  92  95
ENDBRANCH  82  92
BRANCH  83  97
ATOM     97  S   UNL     1      24.959   5.201  13.154  1.00  0.00     0.270 S 
ATOM     98  O   UNL     1      25.017   5.349  11.680  1.00  0.00    -0.199 OA
ATOM     99  O   UNL     1      26.264   4.590  13.606  1.00  0.00    -0.199 OA
BRANCH  97 100
ATOM    100  O   UNL     1      23.710   4.229  13.674  1.00  0.00    -0.285 OA
ATOM    101  H   UNL     1      23.237   4.708  14.389  1.00  0.00     0.234 HD
ENDBRANCH  97 100
ENDBRANCH  83  97
ENDBRANCH  51  77
BRANCH  51 102
ATOM    102  C   UNL     1      26.077   8.874  18.314  1.00  0.00    -0.018 C 
ATOM    103  C   UNL     1      25.687   8.486  19.665  1.00  0.00     0.033 C 
ATOM    104  C   UNL     1      27.171   9.943  18.374  1.00  0.00     0.033 C 
ATOM    105  C   UNL     1      25.015   9.759  17.833  1.00  0.00     0.033 C 
ATOM    106  C   UNL     1      25.510   9.627  20.684  1.00  0.00     0.101 C 
ATOM    107  C   UNL     1      26.882  11.015  19.430  1.00  0.00     0.101 C 
ATOM    108  C   UNL     1      24.648  10.873  18.824  1.00  0.00     0.101 C 
ATOM    109  C   UNL     1      26.729  10.462  20.794  1.00  0.00     0.051 C 
ATOM    110  C   UNL     1      24.364  10.486  20.206  1.00  0.00     0.051 C 
ATOM    111  C   UNL     1      25.775  11.876  18.943  1.00  0.00     0.051 C 
BRANCH 106 112
ATOM    112  S   UNL     1      25.083   8.815  22.216  1.00  0.00     0.270 S 
ATOM    113  O   UNL     1      25.034   7.343  22.044  1.00  0.00    -0.199 OA
ATOM    114  O   UNL     1      23.752   9.387  22.641  1.00  0.00    -0.199 OA
BRANCH 112 115
ATOM    115  O   UNL     1      26.212   9.308  23.366  1.00  0.00    -0.285 OA
ATOM    116  H   UNL     1      27.128   9.039  23.127  1.00  0.00     0.234 HD
ENDBRANCH 112 115
ENDBRANCH 106 112
BRANCH 107 117
ATOM    117  S   UNL     1      28.291  12.135  19.532  1.00  0.00     0.270 S 
ATOM    118  O   UNL     1      28.683  12.371  18.066  1.00  0.00    -0.199 OA
ATOM    119  O   UNL     1      27.838  13.422  20.093  1.00  0.00    -0.199 OA
BRANCH 117 120
ATOM    120  O   UNL     1      29.585  11.430  20.293  1.00  0.00    -0.285 OA
ATOM    121  H   UNL     1      30.166  10.995  19.640  1.00  0.00     0.234 HD
ENDBRANCH 117 120
ENDBRANCH 107 117
BRANCH 108 122
ATOM    122  S   UNL     1      23.258  11.741  18.140  1.00  0.00     0.270 S 
ATOM    123  O   UNL     1      21.968  11.007  18.356  1.00  0.00    -0.199 OA
ATOM    124  O   UNL     1      23.155  13.108  18.795  1.00  0.00    -0.199 OA
BRANCH 122 125
ATOM    125  O   UNL     1      23.468  11.964  16.500  1.00  0.00    -0.285 OA
ATOM    126  H   UNL     1      24.229  11.395  16.212  1.00  0.00     0.234 HD
ENDBRANCH 122 125
ENDBRANCH 108 122
ENDBRANCH  51 102
ENDBRANCH  50  51
ENDBRANCH  49  50
ENDBRANCH  48  49
ENDBRANCH  47  48
ENDBRANCH  46  47
ENDBRANCH  45  46
ENDBRANCH  44  45
ENDBRANCH  43  44
ENDBRANCH   1  43
TORSDOF 43
ENDMDL
MODEL 5
REMARK VINA RESULT:    -9.833      1.517      4.207
REMARK INTER + INTRA:         -41.325
REMARK INTER:                 -33.607
REMARK INTRA:                  -7.717
REMARK UNBOUND:                -9.362
REMARK SMILES NC(=O)c1ccccc1OCc1cccc(C(=O)NC[C@@H](NC(=O)c2ncc[nH]2)C(=O)NCCCCCCCCCCCC([C@]23C[C@]4(S(=O)(=O)O)C[C@](S(=O)(=O)O)(C2)C[C@](S(=O)(=O)O)(C3)C4)([C@]23C[C@]4(S(=O)(=O)O)C[C@](S(=O)(=O)O)(C2)C[C@](S(=O)(=O)O)(C3)C4)[C@]23C[C@]4(S(=O)(=O)O)C[C@](S(=O)(=O)O)(C2)C[C@](S(=O)(=O)O)(C3)C4)c1
REMARK SMILES IDX 35 1 34 2 33 3 32 4 30 5 31 6 21 8 20 9 19 10 18 11 17 12
REMARK SMILES IDX 16 14 15 15 111 16 14 17 12 18 13 19 11 20 10 21 9 22 4 23
REMARK SMILES IDX 8 24 5 25 7 26 6 27 2 28 1 29 3 30 22 33 23 34 24 36 25 37
REMARK SMILES IDX 26 38 29 39 27 40 28 41 36 43 37 44 38 45 39 46 40 47 41 48
REMARK SMILES IDX 42 49 43 50 44 51 67 52 80 53 87 54 68 55 75 56 82 57 69 58
REMARK SMILES IDX 81 59 74 60 88 61 76 62 77 63 78 64 79 65 83 67 84 68 85 69
REMARK SMILES IDX 86 70 70 72 71 73 72 74 73 75 45 77 46 78 58 79 65 80 47 81
REMARK SMILES IDX 53 82 60 83 52 84 66 85 59 86 48 87 49 88 50 89 51 90 54 92
REMARK SMILES IDX 55 93 56 94 57 95 61 97 62 98 63 99 64 100 89 102 102 103
REMARK SMILES IDX 109 104 90 105 97 106 104 107 91 108 103 109 96 110 110 111
REMARK SMILES IDX 98 112 99 113 100 114 101 115 105 117 106 118 107 119
REMARK SMILES IDX 108 120 92 122 93 123 94 124 95 125
REMARK H PARENT 32 7 19 13 1 31 1 32 22 35 29 42 79 66 86 71 73 76 51 91 57 96
REMARK H PARENT 64 101 101 116 108 121 95 126
REMARK Flexibility Score: inf
ROOT
ATOM      1  C   UNL     1      21.996  -2.027  17.011  1.00  0.00     0.002 C 
ENDROOT
BRANCH   1   2
ATOM      2  C   UNL     1      21.035  -2.795  16.195  1.00  0.00     0.021 C 
BRANCH   2   3
ATOM      3  C   UNL     1      20.271  -3.873  16.920  1.00  0.00     0.116 C 
BRANCH   3   4
ATOM      4  N   UNL     1      19.003  -4.091  16.288  1.00  0.00    -0.354 N 
ATOM      5  C   UNL     1      17.781  -4.430  16.919  1.00  0.00     0.244 C 
ATOM      6  O   UNL     1      17.798  -4.560  18.153  1.00  0.00    -0.273 OA
ATOM      7  H   UNL     1      18.971  -3.985  15.225  1.00  0.00     0.163 HD
BRANCH   5   8
ATOM      8  C   UNL     1      16.532  -4.609  16.072  1.00  0.00     0.191 C 
BRANCH   8   9
ATOM      9  C   UNL     1      16.096  -3.324  15.494  1.00  0.00     0.151 C 
BRANCH   9  10
ATOM     10  N   UNL     1      17.066  -2.284  15.363  1.00  0.00    -0.349 N 
ATOM     11  O   UNL     1      15.816  -0.290  15.666  1.00  0.00    -0.269 OA
ATOM     12  C   UNL     1      16.904  -0.902  15.449  1.00  0.00     0.251 C 
ATOM     13  H   UNL     1      18.065  -2.617  15.172  1.00  0.00     0.163 HD
BRANCH  12  14
ATOM     14  C   UNL     1      18.060  -0.016  15.280  1.00  0.00     0.040 A 
ATOM     15  C   UNL     1      18.498   0.369  14.047  1.00  0.00     0.014 A 
ATOM     16  C   UNL     1      18.716   0.418  16.434  1.00  0.00     0.021 A 
ATOM     17  C   UNL     1      19.599   1.187  13.977  1.00  0.00     0.001 A 
ATOM     18  C   UNL     1      19.834   1.249  16.349  1.00  0.00    -0.010 A 
ATOM     19  C   UNL     1      20.264   1.626  15.090  1.00  0.00     0.007 A 
BRANCH  18  20
ATOM     20  C   UNL     1      20.529   1.692  17.577  1.00  0.00     0.265 C 
BRANCH  20  21
ATOM     21  O   UNL     1      19.683   1.855  18.646  1.00  0.00    -0.488 OA
BRANCH  21  22
ATOM     22  C   UNL     1      19.948   2.358  19.893  1.00  0.00     0.132 A 
ATOM     23  C   UNL     1      18.864   2.644  20.729  1.00  0.00     0.081 A 
ATOM     24  C   UNL     1      21.249   2.577  20.309  1.00  0.00     0.047 A 
ATOM     25  C   UNL     1      19.109   3.151  21.977  1.00  0.00     0.018 A 
ATOM     26  C   UNL     1      21.460   3.087  21.569  1.00  0.00     0.004 A 
ATOM     27  C   UNL     1      20.390   3.372  22.399  1.00  0.00     0.001 A 
BRANCH  23  28
ATOM     28  C   UNL     1      17.479   2.393  20.275  1.00  0.00     0.252 C 
ATOM     29  N   UNL     1      17.257   2.499  18.877  1.00  0.00    -0.365 N 
ATOM     30  O   UNL     1      16.632   2.114  21.134  1.00  0.00    -0.269 OA
ATOM     31  H   UNL     1      17.581   1.692  18.268  1.00  0.00     0.159 HD
ATOM     32  H   UNL     1      16.800   3.318  18.447  1.00  0.00     0.159 HD
ENDBRANCH  23  28
ENDBRANCH  21  22
ENDBRANCH  20  21
ENDBRANCH  18  20
ENDBRANCH  12  14
ENDBRANCH   9  10
ENDBRANCH   8   9
BRANCH   8  33
ATOM     33  N   UNL     1      16.755  -5.631  15.110  1.00  0.00    -0.336 N 
ATOM     34  C   UNL     1      15.865  -6.597  14.611  1.00  0.00     0.287 C 
ATOM     35  H   UNL     1      17.746  -5.686  14.667  1.00  0.00     0.164 HD
ATOM     36  O   UNL     1      14.675  -6.716  14.971  1.00  0.00    -0.266 OA
BRANCH  34  37
ATOM     37  C   UNL     1      16.336  -7.565  13.582  1.00  0.00     0.196 A 
ATOM     38  N   UNL     1      15.805  -7.724  12.360  1.00  0.00    -0.232 NA
ATOM     39  N   UNL     1      17.340  -8.437  13.687  1.00  0.00    -0.341 N 
ATOM     40  C   UNL     1      16.454  -8.684  11.683  1.00  0.00     0.131 A 
ATOM     41  C   UNL     1      17.437  -9.131  12.552  1.00  0.00     0.104 A 
ATOM     42  H   UNL     1      17.952  -8.541  14.549  1.00  0.00     0.168 HD
ENDBRANCH  34  37
ENDBRANCH   8  33
ENDBRANCH   5   8
ENDBRANCH   3   4
ENDBRANCH   2   3
ENDBRANCH   1   2
BRANCH   1  43
ATOM     43  C   UNL     1      22.903  -1.071  16.355  1.00  0.00     0.000 C 
BRANCH  43  44
ATOM     44  C   UNL     1      24.165  -0.711  17.048  1.00  0.00     0.000 C 
BRANCH  44  45
ATOM     45  C   UNL     1      24.041   0.587  17.839  1.00  0.00     0.000 C 
BRANCH  45  46
ATOM     46  C   UNL     1      24.861   1.686  17.169  1.00  0.00     0.000 C 
BRANCH  46  47
ATOM     47  C   UNL     1      24.701   2.990  17.878  1.00  0.00     0.000 C 
BRANCH  47  48
ATOM     48  C   UNL     1      25.395   4.176  17.297  1.00  0.00     0.000 C 
BRANCH  48  49
ATOM     49  C   UNL     1      25.793   5.249  18.187  1.00  0.00     0.001 C 
BRANCH  49  50
ATOM     50  C   UNL     1      25.963   6.595  18.172  1.00  0.00     0.009 C 
BRANCH  50  51
ATOM     51  C   UNL     1      26.549   7.848  17.551  1.00  0.00    -0.012 C 
BRANCH  51  52
ATOM     52  C   UNL     1      26.153   7.829  16.109  1.00  0.00    -0.018 C 
ATOM     53  C   UNL     1      24.698   8.119  15.871  1.00  0.00     0.033 C 
ATOM     54  C   UNL     1      26.681   8.978  15.280  1.00  0.00     0.033 C 
ATOM     55  C   UNL     1      26.571   6.695  15.218  1.00  0.00     0.033 C 
ATOM     56  C   UNL     1      24.290   8.269  14.415  1.00  0.00     0.101 C 
ATOM     57  C   UNL     1      26.312   9.045  13.847  1.00  0.00     0.101 C 
ATOM     58  C   UNL     1      25.927   6.731  13.818  1.00  0.00     0.101 C 
ATOM     59  C   UNL     1      24.890   9.434  13.720  1.00  0.00     0.051 C 
ATOM     60  C   UNL     1      24.486   6.934  13.756  1.00  0.00     0.051 C 
ATOM     61  C   UNL     1      26.526   7.840  12.985  1.00  0.00     0.051 C 
BRANCH  56  62
ATOM     62  S   UNL     1      22.522   8.589  14.383  1.00  0.00     0.270 S 
ATOM     63  O   UNL     1      22.265   9.942  13.771  1.00  0.00    -0.199 OA
ATOM     64  O   UNL     1      21.859   7.512  13.614  1.00  0.00    -0.199 OA
BRANCH  62  65
ATOM     65  O   UNL     1      21.925   8.570  15.940  1.00  0.00    -0.285 OA
ATOM     66  H   UNL     1      21.121   9.140  16.049  1.00  0.00     0.234 HD
ENDBRANCH  62  65
ENDBRANCH  56  62
BRANCH  57  67
ATOM     67  S   UNL     1      27.329  10.323  13.111  1.00  0.00     0.270 S 
ATOM     68  O   UNL     1      27.202  11.603  13.920  1.00  0.00    -0.199 OA
ATOM     69  O   UNL     1      26.829  10.676  11.736  1.00  0.00    -0.199 OA
BRANCH  67  70
ATOM     70  O   UNL     1      28.933   9.929  13.031  1.00  0.00    -0.285 OA
ATOM     71  H   UNL     1      29.040   9.074  12.533  1.00  0.00     0.234 HD
ENDBRANCH  67  70
ENDBRANCH  57  67
BRANCH  58  72
ATOM     72  S   UNL     1      26.321   5.166  13.036  1.00  0.00     0.270 S 
ATOM     73  O   UNL     1      26.169   5.300  11.551  1.00  0.00    -0.199 OA
ATOM     74  O   UNL     1      25.359   4.129  13.534  1.00  0.00    -0.199 OA
BRANCH  72  75
ATOM     75  O   UNL     1      27.912   4.763  13.351  1.00  0.00    -0.285 OA
ATOM     76  H   UNL     1      28.452   5.132  12.590  1.00  0.00     0.234 HD
ENDBRANCH  72  75
ENDBRANCH  58  72
ENDBRANCH  51  52
BRANCH  51  77
ATOM     77  C   UNL     1      26.180   9.036  18.412  1.00  0.00    -0.018 C 
ATOM     78  C   UNL     1      26.882  10.314  18.286  1.00  0.00     0.033 C 
ATOM     79  C   UNL     1      25.637   8.632  19.757  1.00  0.00     0.033 C 
ATOM     80  C   UNL     1      24.798   9.655  17.990  1.00  0.00     0.033 C 
ATOM     81  C   UNL     1      26.454  11.372  19.332  1.00  0.00     0.101 C 
ATOM     82  C   UNL     1      25.466   9.749  20.743  1.00  0.00     0.101 C 
ATOM     83  C   UNL     1      24.272  10.681  18.967  1.00  0.00     0.101 C 
ATOM     84  C   UNL     1      26.487  10.818  20.720  1.00  0.00     0.051 C 
ATOM     85  C   UNL     1      25.147  11.955  18.924  1.00  0.00     0.051 C 
ATOM     86  C   UNL     1      24.093  10.378  20.359  1.00  0.00     0.051 C 
BRANCH  81  87
ATOM     87  S   UNL     1      27.614  12.735  19.275  1.00  0.00     0.270 S 
ATOM     88  O   UNL     1      28.385  12.843  20.539  1.00  0.00    -0.199 OA
ATOM     89  O   UNL     1      28.565  12.569  18.120  1.00  0.00    -0.199 OA
BRANCH  87  90
ATOM     90  O   UNL     1      26.695  14.127  19.078  1.00  0.00    -0.285 OA
ATOM     91  H   UNL     1      26.039  14.264  19.780  1.00  0.00     0.234 HD
ENDBRANCH  87  90
ENDBRANCH  81  87
BRANCH  82  92
ATOM     92  S   UNL     1      25.316   9.088  22.372  1.00  0.00     0.270 S 
ATOM     93  O   UNL     1      24.167   9.722  23.120  1.00  0.00    -0.199 OA
ATOM     94  O   UNL     1      26.586   9.439  23.136  1.00  0.00    -0.199 OA
BRANCH  92  95
ATOM     95  O   UNL     1      25.158   7.440  22.430  1.00  0.00    -0.285 OA
ATOM     96  H   UNL     1      24.219   7.131  22.500  1.00  0.00     0.234 HD
ENDBRANCH  92  95
ENDBRANCH  82  92
BRANCH  83  97
ATOM     97  S   UNL     1      22.666  11.161  18.298  1.00  0.00     0.270 S 
ATOM     98  O   UNL     1      22.221  12.467  18.841  1.00  0.00    -0.199 OA
ATOM     99  O   UNL     1      22.873  11.328  16.813  1.00  0.00    -0.199 OA
BRANCH  97 100
ATOM    100  O   UNL     1      21.568   9.932  18.546  1.00  0.00    -0.285 OA
ATOM    101  H   UNL     1      20.696  10.345  18.730  1.00  0.00     0.234 HD
ENDBRANCH  97 100
ENDBRANCH  83  97
ENDBRANCH  51  77
BRANCH  51 102
ATOM    102  C   UNL     1      28.087   7.700  17.732  1.00  0.00    -0.018 C 
ATOM    103  C   UNL     1      28.654   6.468  17.198  1.00  0.00     0.033 C 
ATOM    104  C   UNL     1      28.817   8.909  17.139  1.00  0.00     0.033 C 
ATOM    105  C   UNL     1      28.629   7.835  19.085  1.00  0.00     0.033 C 
ATOM    106  C   UNL     1      30.190   6.398  17.113  1.00  0.00     0.101 C 
ATOM    107  C   UNL     1      30.336   8.713  17.103  1.00  0.00     0.101 C 
ATOM    108  C   UNL     1      30.152   7.653  19.157  1.00  0.00     0.101 C 
ATOM    109  C   UNL     1      30.750   7.522  16.327  1.00  0.00     0.051 C 
ATOM    110  C   UNL     1      30.725   6.464  18.523  1.00  0.00     0.051 C 
ATOM    111  C   UNL     1      30.862   8.809  18.488  1.00  0.00     0.051 C 
BRANCH 106 112
ATOM    112  S   UNL     1      30.539   4.803  16.390  1.00  0.00     0.270 S 
ATOM    113  O   UNL     1      31.511   4.923  15.276  1.00  0.00    -0.199 OA
ATOM    114  O   UNL     1      29.212   4.245  15.935  1.00  0.00    -0.199 OA
BRANCH 112 115
ATOM    115  O   UNL     1      31.082   3.805  17.635  1.00  0.00    -0.285 OA
ATOM    116  H   UNL     1      30.999   4.234  18.517  1.00  0.00     0.234 HD
ENDBRANCH 112 115
ENDBRANCH 106 112
BRANCH 107 117
ATOM    117  S   UNL     1      31.090  10.112  16.252  1.00  0.00     0.270 S 
ATOM    118  O   UNL     1      31.849  10.854  17.363  1.00  0.00    -0.199 OA
ATOM    119  O   UNL     1      32.081   9.605  15.285  1.00  0.00    -0.199 OA
BRANCH 117 120
ATOM    120  O   UNL     1      29.950  11.151  15.642  1.00  0.00    -0.285 OA
ATOM    121  H   UNL     1      30.272  12.071  15.688  1.00  0.00     0.234 HD
ENDBRANCH 117 120
ENDBRANCH 107 117
BRANCH 108 122
ATOM    122  S   UNL     1      30.602   7.699  20.874  1.00  0.00     0.270 S 
ATOM    123  O   UNL     1      29.531   8.315  21.725  1.00  0.00    -0.199 OA
ATOM    124  O   UNL     1      30.853   6.282  21.360  1.00  0.00    -0.199 OA
BRANCH 122 125
ATOM    125  O   UNL     1      32.006   8.577  21.078  1.00  0.00    -0.285 OA
ATOM    126  H   UNL     1      32.759   7.933  21.145  1.00  0.00     0.234 HD
ENDBRANCH 122 125
ENDBRANCH 108 122
ENDBRANCH  51 102
ENDBRANCH  50  51
ENDBRANCH  49  50
ENDBRANCH  48  49
ENDBRANCH  47  48
ENDBRANCH  46  47
ENDBRANCH  45  46
ENDBRANCH  44  45
ENDBRANCH  43  44
ENDBRANCH   1  43
TORSDOF 43
ENDMDL
MODEL 6
REMARK VINA RESULT:    -9.788      3.279      7.178
REMARK INTER + INTRA:         -41.180
REMARK INTER:                 -27.412
REMARK INTRA:                 -13.768
REMARK UNBOUND:                -9.362
REMARK SMILES NC(=O)c1ccccc1OCc1cccc(C(=O)NC[C@@H](NC(=O)c2ncc[nH]2)C(=O)NCCCCCCCCCCCC([C@]23C[C@]4(S(=O)(=O)O)C[C@](S(=O)(=O)O)(C2)C[C@](S(=O)(=O)O)(C3)C4)([C@]23C[C@]4(S(=O)(=O)O)C[C@](S(=O)(=O)O)(C2)C[C@](S(=O)(=O)O)(C3)C4)[C@]23C[C@]4(S(=O)(=O)O)C[C@](S(=O)(=O)O)(C2)C[C@](S(=O)(=O)O)(C3)C4)c1
REMARK SMILES IDX 35 1 34 2 33 3 32 4 30 5 31 6 21 8 20 9 19 10 18 11 17 12
REMARK SMILES IDX 16 14 15 15 111 16 14 17 12 18 13 19 11 20 10 21 9 22 4 23
REMARK SMILES IDX 8 24 5 25 7 26 6 27 2 28 1 29 3 30 22 33 23 34 24 36 25 37
REMARK SMILES IDX 26 38 29 39 27 40 28 41 36 43 37 44 38 45 39 46 40 47 41 48
REMARK SMILES IDX 42 49 43 50 44 51 67 52 80 53 87 54 68 55 75 56 82 57 69 58
REMARK SMILES IDX 81 59 74 60 88 61 76 62 77 63 78 64 79 65 83 67 84 68 85 69
REMARK SMILES IDX 86 70 70 72 71 73 72 74 73 75 45 77 46 78 58 79 65 80 47 81
REMARK SMILES IDX 53 82 60 83 52 84 66 85 59 86 48 87 49 88 50 89 51 90 54 92
REMARK SMILES IDX 55 93 56 94 57 95 61 97 62 98 63 99 64 100 89 102 102 103
REMARK SMILES IDX 109 104 90 105 97 106 104 107 91 108 103 109 96 110 110 111
REMARK SMILES IDX 98 112 99 113 100 114 101 115 105 117 106 118 107 119
REMARK SMILES IDX 108 120 92 122 93 123 94 124 95 125
REMARK H PARENT 32 7 19 13 1 31 1 32 22 35 29 42 79 66 86 71 73 76 51 91 57 96
REMARK H PARENT 64 101 101 116 108 121 95 126
REMARK Flexibility Score: inf
ROOT
ATOM      1  C   UNL     1      29.198   5.672  16.620  1.00  0.00     0.002 C 
ENDROOT
BRANCH   1   2
ATOM      2  C   UNL     1      27.843   5.390  16.107  1.00  0.00     0.021 C 
BRANCH   2   3
ATOM      3  C   UNL     1      27.657   4.051  15.441  1.00  0.00     0.116 C 
BRANCH   3   4
ATOM      4  N   UNL     1      26.655   3.291  16.129  1.00  0.00    -0.354 N 
ATOM      5  C   UNL     1      26.699   1.912  16.449  1.00  0.00     0.244 C 
ATOM      6  O   UNL     1      27.709   1.281  16.097  1.00  0.00    -0.273 OA
ATOM      7  H   UNL     1      25.779   3.819  16.438  1.00  0.00     0.163 HD
BRANCH   5   8
ATOM      8  C   UNL     1      25.536   1.285  17.199  1.00  0.00     0.191 C 
BRANCH   8   9
ATOM      9  C   UNL     1      24.826   2.292  18.010  1.00  0.00     0.151 C 
BRANCH   9  10
ATOM     10  N   UNL     1      23.440   2.078  18.281  1.00  0.00    -0.349 N 
ATOM     11  O   UNL     1      23.031   3.364  20.233  1.00  0.00    -0.269 OA
ATOM     12  C   UNL     1      22.646   2.587  19.309  1.00  0.00     0.251 C 
ATOM     13  H   UNL     1      22.936   1.434  17.591  1.00  0.00     0.163 HD
BRANCH  12  14
ATOM     14  C   UNL     1      21.227   2.227  19.386  1.00  0.00     0.040 A 
ATOM     15  C   UNL     1      20.432   2.651  20.410  1.00  0.00     0.014 A 
ATOM     16  C   UNL     1      20.710   1.417  18.374  1.00  0.00     0.021 A 
ATOM     17  C   UNL     1      19.117   2.255  20.416  1.00  0.00     0.001 A 
ATOM     18  C   UNL     1      19.371   1.020  18.392  1.00  0.00    -0.010 A 
ATOM     19  C   UNL     1      18.582   1.459  19.440  1.00  0.00     0.007 A 
BRANCH  18  20
ATOM     20  C   UNL     1      18.837   0.151  17.322  1.00  0.00     0.265 C 
BRANCH  20  21
ATOM     21  O   UNL     1      19.258   0.518  16.068  1.00  0.00    -0.488 OA
BRANCH  21  22
ATOM     22  C   UNL     1      18.619   1.283  15.127  1.00  0.00     0.132 A 
ATOM     23  C   UNL     1      19.400   1.910  14.152  1.00  0.00     0.081 A 
ATOM     24  C   UNL     1      17.244   1.428  15.145  1.00  0.00     0.047 A 
ATOM     25  C   UNL     1      18.780   2.681  13.205  1.00  0.00     0.018 A 
ATOM     26  C   UNL     1      16.653   2.210  14.180  1.00  0.00     0.004 A 
ATOM     27  C   UNL     1      17.421   2.834  13.213  1.00  0.00     0.001 A 
BRANCH  23  28
ATOM     28  C   UNL     1      20.869   1.736  14.138  1.00  0.00     0.252 C 
ATOM     29  N   UNL     1      21.555   2.171  15.302  1.00  0.00    -0.365 N 
ATOM     30  O   UNL     1      21.380   1.231  13.130  1.00  0.00    -0.269 OA
ATOM     31  H   UNL     1      21.509   1.547  16.159  1.00  0.00     0.159 HD
ATOM     32  H   UNL     1      22.084   3.057  15.337  1.00  0.00     0.159 HD
ENDBRANCH  23  28
ENDBRANCH  21  22
ENDBRANCH  20  21
ENDBRANCH  18  20
ENDBRANCH  12  14
ENDBRANCH   9  10
ENDBRANCH   8   9
BRANCH   8  33
ATOM     33  N   UNL     1      24.703   0.589  16.282  1.00  0.00    -0.336 N 
ATOM     34  C   UNL     1      23.828  -0.487  16.510  1.00  0.00     0.287 C 
ATOM     35  H   UNL     1      24.714   0.925  15.249  1.00  0.00     0.164 HD
ATOM     36  O   UNL     1      23.649  -1.031  17.620  1.00  0.00    -0.266 OA
BRANCH  34  37
ATOM     37  C   UNL     1      23.041  -1.045  15.375  1.00  0.00     0.196 A 
ATOM     38  N   UNL     1      21.828  -1.612  15.472  1.00  0.00    -0.232 NA
ATOM     39  N   UNL     1      23.392  -1.092  14.090  1.00  0.00    -0.341 N 
ATOM     40  C   UNL     1      21.401  -2.021  14.267  1.00  0.00     0.131 A 
ATOM     41  C   UNL     1      22.419  -1.679  13.391  1.00  0.00     0.104 A 
ATOM     42  H   UNL     1      24.308  -0.713  13.707  1.00  0.00     0.168 HD
ENDBRANCH  34  37
ENDBRANCH   8  33
ENDBRANCH   5   8
ENDBRANCH   3   4
ENDBRANCH   2   3
ENDBRANCH   1   2
BRANCH   1  43
ATOM     43  C   UNL     1      29.426   6.863  17.453  1.00  0.00     0.000 C 
BRANCH  43  44
ATOM     44  C   UNL     1      30.498   7.807  17.053  1.00  0.00     0.000 C 
BRANCH  44  45
ATOM     45  C   UNL     1      31.266   7.324  15.826  1.00  0.00     0.000 C 
BRANCH  45  46
ATOM     46  C   UNL     1      30.985   8.242  14.640  1.00  0.00     0.000 C 
BRANCH  46  47
ATOM     47  C   UNL     1      30.093   7.581  13.642  1.00  0.00     0.000 C 
BRANCH  47  48
ATOM     48  C   UNL     1      28.672   8.031  13.588  1.00  0.00     0.000 C 
BRANCH  48  49
ATOM     49  C   UNL     1      28.206   8.970  14.590  1.00  0.00     0.001 C 
BRANCH  49  50
ATOM     50  C   UNL     1      27.186   9.117  15.472  1.00  0.00     0.009 C 
BRANCH  50  51
ATOM     51  C   UNL     1      25.892   9.781  15.900  1.00  0.00    -0.012 C 
BRANCH  51  52
ATOM     52  C   UNL     1      24.819   9.218  15.023  1.00  0.00    -0.018 C 
ATOM     53  C   UNL     1      24.982   9.551  13.568  1.00  0.00     0.033 C 
ATOM     54  C   UNL     1      24.853   7.716  14.846  1.00  0.00     0.033 C 
ATOM     55  C   UNL     1      23.372   9.370  15.394  1.00  0.00     0.033 C 
ATOM     56  C   UNL     1      24.007   8.865  12.626  1.00  0.00     0.101 C 
ATOM     57  C   UNL     1      23.839   7.084  13.972  1.00  0.00     0.101 C 
ATOM     58  C   UNL     1      22.394   8.903  14.299  1.00  0.00     0.101 C 
ATOM     59  C   UNL     1      24.146   7.389  12.557  1.00  0.00     0.051 C 
ATOM     60  C   UNL     1      22.635   9.385  12.945  1.00  0.00     0.051 C 
ATOM     61  C   UNL     1      22.392   7.395  14.194  1.00  0.00     0.051 C 
BRANCH  56  62
ATOM     62  S   UNL     1      24.381   9.428  10.961  1.00  0.00     0.270 S 
ATOM     63  O   UNL     1      23.848  10.824  10.768  1.00  0.00    -0.199 OA
ATOM     64  O   UNL     1      25.846   9.375  10.760  1.00  0.00    -0.199 OA
BRANCH  62  65
ATOM     65  O   UNL     1      23.659   8.410   9.854  1.00  0.00    -0.285 OA
ATOM     66  H   UNL     1      22.806   8.028  10.184  1.00  0.00     0.234 HD
ENDBRANCH  62  65
ENDBRANCH  56  62
BRANCH  57  67
ATOM     67  S   UNL     1      23.972   5.315  14.223  1.00  0.00     0.270 S 
ATOM     68  O   UNL     1      22.691   4.639  13.760  1.00  0.00    -0.199 OA
ATOM     69  O   UNL     1      24.079   4.990  15.688  1.00  0.00    -0.199 OA
BRANCH  67  70
ATOM     70  O   UNL     1      25.235   4.622  13.410  1.00  0.00    -0.285 OA
ATOM     71  H   UNL     1      24.924   4.318  12.514  1.00  0.00     0.234 HD
ENDBRANCH  67  70
ENDBRANCH  57  67
BRANCH  58  72
ATOM     72  S   UNL     1      20.760   9.432  14.815  1.00  0.00     0.270 S 
ATOM     73  O   UNL     1      20.884  10.358  15.987  1.00  0.00    -0.199 OA
ATOM     74  O   UNL     1      19.977   8.222  15.229  1.00  0.00    -0.199 OA
BRANCH  72  75
ATOM     75  O   UNL     1      20.023  10.275  13.575  1.00  0.00    -0.285 OA
ATOM     76  H   UNL     1      20.541  11.128  13.468  1.00  0.00     0.234 HD
ENDBRANCH  72  75
ENDBRANCH  58  72
ENDBRANCH  51  52
BRANCH  51  77
ATOM     77  C   UNL     1      25.763   9.671  17.404  1.00  0.00    -0.018 C 
ATOM     78  C   UNL     1      24.617  10.243  18.112  1.00  0.00     0.033 C 
ATOM     79  C   UNL     1      27.097   9.616  18.099  1.00  0.00     0.033 C 
ATOM     80  C   UNL     1      25.417   8.204  17.853  1.00  0.00     0.033 C 
ATOM     81  C   UNL     1      24.718  10.143  19.654  1.00  0.00     0.101 C 
ATOM     82  C   UNL     1      27.048   9.736  19.593  1.00  0.00     0.101 C 
ATOM     83  C   UNL     1      25.519   7.990  19.346  1.00  0.00     0.101 C 
ATOM     84  C   UNL     1      26.032  10.651  20.153  1.00  0.00     0.051 C 
ATOM     85  C   UNL     1      24.387   8.753  20.071  1.00  0.00     0.051 C 
ATOM     86  C   UNL     1      26.720   8.290  20.073  1.00  0.00     0.051 C 
BRANCH  81  87
ATOM     87  S   UNL     1      23.440  11.168  20.379  1.00  0.00     0.270 S 
ATOM     88  O   UNL     1      24.012  12.156  21.327  1.00  0.00    -0.199 OA
ATOM     89  O   UNL     1      22.671  11.889  19.304  1.00  0.00    -0.199 OA
BRANCH  87  90
ATOM     90  O   UNL     1      22.426  10.128  21.223  1.00  0.00    -0.285 OA
ATOM     91  H   UNL     1      22.034   9.433  20.670  1.00  0.00     0.234 HD
ENDBRANCH  87  90
ENDBRANCH  81  87
BRANCH  82  92
ATOM     92  S   UNL     1      28.648  10.155  20.209  1.00  0.00     0.270 S 
ATOM     93  O   UNL     1      29.276   8.994  20.943  1.00  0.00    -0.199 OA
ATOM     94  O   UNL     1      28.477  11.278  21.223  1.00  0.00    -0.199 OA
BRANCH  92  95
ATOM     95  O   UNL     1      29.703  10.703  19.056  1.00  0.00    -0.285 OA
ATOM     96  H   UNL     1      30.148   9.979  18.546  1.00  0.00     0.234 HD
ENDBRANCH  92  95
ENDBRANCH  82  92
BRANCH  83  97
ATOM     97  S   UNL     1      25.161   6.236  19.576  1.00  0.00     0.270 S 
ATOM     98  O   UNL     1      26.055   5.630  20.592  1.00  0.00    -0.199 OA
ATOM     99  O   UNL     1      23.750   6.172  20.110  1.00  0.00    -0.199 OA
BRANCH  97 100
ATOM    100  O   UNL     1      25.207   5.458  18.104  1.00  0.00    -0.285 OA
ATOM    101  H   UNL     1      24.890   6.090  17.422  1.00  0.00     0.234 HD
ENDBRANCH  97 100
ENDBRANCH  83  97
ENDBRANCH  51  77
BRANCH  51 102
ATOM    102  C   UNL     1      26.117  11.298  15.640  1.00  0.00    -0.018 C 
ATOM    103  C   UNL     1      24.953  12.143  15.878  1.00  0.00     0.033 C 
ATOM    104  C   UNL     1      27.309  11.811  16.453  1.00  0.00     0.033 C 
ATOM    105  C   UNL     1      26.636  11.694  14.330  1.00  0.00     0.033 C 
ATOM    106  C   UNL     1      25.198  13.663  15.894  1.00  0.00     0.101 C 
ATOM    107  C   UNL     1      27.440  13.337  16.395  1.00  0.00     0.101 C 
ATOM    108  C   UNL     1      26.803  13.212  14.169  1.00  0.00     0.101 C 
ATOM    109  C   UNL     1      26.234  14.043  16.883  1.00  0.00     0.051 C 
ATOM    110  C   UNL     1      25.662  14.061  14.514  1.00  0.00     0.051 C 
ATOM    111  C   UNL     1      27.925  13.722  15.046  1.00  0.00     0.051 C 
BRANCH 106 112
ATOM    112  S   UNL     1      23.603  14.383  16.247  1.00  0.00     0.270 S 
ATOM    113  O   UNL     1      23.163  15.273  15.145  1.00  0.00    -0.199 OA
ATOM    114  O   UNL     1      23.752  15.122  17.555  1.00  0.00    -0.199 OA
BRANCH 112 115
ATOM    115  O   UNL     1      22.539  13.108  16.530  1.00  0.00    -0.285 OA
ATOM    116  H   UNL     1      22.712  12.664  17.391  1.00  0.00     0.234 HD
ENDBRANCH 112 115
ENDBRANCH 106 112
BRANCH 107 117
ATOM    117  S   UNL     1      28.767  13.855  17.500  1.00  0.00     0.270 S 
ATOM    118  O   UNL     1      29.959  12.981  17.082  1.00  0.00    -0.199 OA
ATOM    119  O   UNL     1      29.110  15.260  17.207  1.00  0.00    -0.199 OA
BRANCH 117 120
ATOM    120  O   UNL     1      28.421  13.512  19.084  1.00  0.00    -0.285 OA
ATOM    121  H   UNL     1      28.573  14.298  19.643  1.00  0.00     0.234 HD
ENDBRANCH 117 120
ENDBRANCH 107 117
BRANCH 108 122
ATOM    122  S   UNL     1      27.291  13.507  12.487  1.00  0.00     0.270 S 
ATOM    123  O   UNL     1      28.722  13.943  12.379  1.00  0.00    -0.199 OA
ATOM    124  O   UNL     1      27.110  12.229  11.686  1.00  0.00    -0.199 OA
BRANCH 122 125
ATOM    125  O   UNL     1      26.329  14.690  11.808  1.00  0.00    -0.285 OA
ATOM    126  H   UNL     1      25.968  14.333  10.955  1.00  0.00     0.234 HD
ENDBRANCH 122 125
ENDBRANCH 108 122
ENDBRANCH  51 102
ENDBRANCH  50  51
ENDBRANCH  49  50
ENDBRANCH  48  49
ENDBRANCH  47  48
ENDBRANCH  46  47
ENDBRANCH  45  46
ENDBRANCH  44  45
ENDBRANCH  43  44
ENDBRANCH   1  43
TORSDOF 43
ENDMDL
MODEL 7
REMARK VINA RESULT:    -9.778      3.968      7.496
REMARK INTER + INTRA:         -41.148
REMARK INTER:                 -27.686
REMARK INTRA:                 -13.462
REMARK UNBOUND:                -9.362
REMARK SMILES NC(=O)c1ccccc1OCc1cccc(C(=O)NC[C@@H](NC(=O)c2ncc[nH]2)C(=O)NCCCCCCCCCCCC([C@]23C[C@]4(S(=O)(=O)O)C[C@](S(=O)(=O)O)(C2)C[C@](S(=O)(=O)O)(C3)C4)([C@]23C[C@]4(S(=O)(=O)O)C[C@](S(=O)(=O)O)(C2)C[C@](S(=O)(=O)O)(C3)C4)[C@]23C[C@]4(S(=O)(=O)O)C[C@](S(=O)(=O)O)(C2)C[C@](S(=O)(=O)O)(C3)C4)c1
REMARK SMILES IDX 35 1 34 2 33 3 32 4 30 5 31 6 21 8 20 9 19 10 18 11 17 12
REMARK SMILES IDX 16 14 15 15 111 16 14 17 12 18 13 19 11 20 10 21 9 22 4 23
REMARK SMILES IDX 8 24 5 25 7 26 6 27 2 28 1 29 3 30 22 33 23 34 24 36 25 37
REMARK SMILES IDX 26 38 29 39 27 40 28 41 36 43 37 44 38 45 39 46 40 47 41 48
REMARK SMILES IDX 42 49 43 50 44 51 67 52 80 53 87 54 68 55 75 56 82 57 69 58
REMARK SMILES IDX 81 59 74 60 88 61 76 62 77 63 78 64 79 65 83 67 84 68 85 69
REMARK SMILES IDX 86 70 70 72 71 73 72 74 73 75 45 77 46 78 58 79 65 80 47 81
REMARK SMILES IDX 53 82 60 83 52 84 66 85 59 86 48 87 49 88 50 89 51 90 54 92
REMARK SMILES IDX 55 93 56 94 57 95 61 97 62 98 63 99 64 100 89 102 102 103
REMARK SMILES IDX 109 104 90 105 97 106 104 107 91 108 103 109 96 110 110 111
REMARK SMILES IDX 98 112 99 113 100 114 101 115 105 117 106 118 107 119
REMARK SMILES IDX 108 120 92 122 93 123 94 124 95 125
REMARK H PARENT 32 7 19 13 1 31 1 32 22 35 29 42 79 66 86 71 73 76 51 91 57 96
REMARK H PARENT 64 101 101 116 108 121 95 126
REMARK Flexibility Score: inf
ROOT
ATOM      1  C   UNL     1      24.559   7.211  20.640  1.00  0.00     0.002 C 
ENDROOT
BRANCH   1   2
ATOM      2  C   UNL     1      25.284   6.387  19.652  1.00  0.00     0.021 C 
BRANCH   2   3
ATOM      3  C   UNL     1      24.817   4.960  19.516  1.00  0.00     0.116 C 
BRANCH   3   4
ATOM      4  N   UNL     1      25.238   4.421  18.256  1.00  0.00    -0.354 N 
ATOM      5  C   UNL     1      25.193   3.065  17.850  1.00  0.00     0.244 C 
ATOM      6  O   UNL     1      24.747   2.244  18.668  1.00  0.00    -0.273 OA
ATOM      7  H   UNL     1      25.627   5.115  17.542  1.00  0.00     0.163 HD
BRANCH   5   8
ATOM      8  C   UNL     1      25.678   2.689  16.460  1.00  0.00     0.191 C 
BRANCH   8   9
ATOM      9  C   UNL     1      25.069   1.423  16.012  1.00  0.00     0.151 C 
BRANCH   9  10
ATOM     10  N   UNL     1      23.645   1.358  15.926  1.00  0.00    -0.349 N 
ATOM     11  O   UNL     1      23.153   2.303  13.806  1.00  0.00    -0.269 OA
ATOM     12  C   UNL     1      22.797   1.769  14.899  1.00  0.00     0.251 C 
ATOM     13  H   UNL     1      23.158   0.927  16.777  1.00  0.00     0.163 HD
BRANCH  12  14
ATOM     14  C   UNL     1      21.347   1.599  15.032  1.00  0.00     0.040 A 
ATOM     15  C   UNL     1      20.510   1.686  13.959  1.00  0.00     0.014 A 
ATOM     16  C   UNL     1      20.840   1.353  16.310  1.00  0.00     0.021 A 
ATOM     17  C   UNL     1      19.162   1.530  14.174  1.00  0.00     0.001 A 
ATOM     18  C   UNL     1      19.468   1.197  16.515  1.00  0.00    -0.010 A 
ATOM     19  C   UNL     1      18.636   1.291  15.414  1.00  0.00     0.007 A 
BRANCH  18  20
ATOM     20  C   UNL     1      18.941   0.950  17.874  1.00  0.00     0.265 C 
BRANCH  20  21
ATOM     21  O   UNL     1      18.898   2.082  18.649  1.00  0.00    -0.488 OA
BRANCH  21  22
ATOM     22  C   UNL     1      19.651   2.412  19.746  1.00  0.00     0.132 A 
ATOM     23  C   UNL     1      18.980   2.797  20.910  1.00  0.00     0.081 A 
ATOM     24  C   UNL     1      21.032   2.367  19.698  1.00  0.00     0.047 A 
ATOM     25  C   UNL     1      19.715   3.133  22.015  1.00  0.00     0.018 A 
ATOM     26  C   UNL     1      21.741   2.711  20.825  1.00  0.00     0.004 A 
ATOM     27  C   UNL     1      21.082   3.093  21.980  1.00  0.00     0.001 A 
BRANCH  23  28
ATOM     28  C   UNL     1      17.502   2.830  20.951  1.00  0.00     0.252 C 
ATOM     29  N   UNL     1      16.894   2.052  21.972  1.00  0.00    -0.365 N 
ATOM     30  O   UNL     1      16.917   3.521  20.108  1.00  0.00    -0.269 OA
ATOM     31  H   UNL     1      16.910   2.442  22.959  1.00  0.00     0.159 HD
ATOM     32  H   UNL     1      16.447   1.141  21.784  1.00  0.00     0.159 HD
ENDBRANCH  23  28
ENDBRANCH  21  22
ENDBRANCH  20  21
ENDBRANCH  18  20
ENDBRANCH  12  14
ENDBRANCH   9  10
ENDBRANCH   8   9
BRANCH   8  33
ATOM     33  N   UNL     1      25.466   3.780  15.575  1.00  0.00    -0.336 N 
ATOM     34  C   UNL     1      26.097   4.074  14.354  1.00  0.00     0.287 C 
ATOM     35  H   UNL     1      24.698   4.498  15.848  1.00  0.00     0.164 HD
ATOM     36  O   UNL     1      27.003   3.385  13.840  1.00  0.00    -0.266 OA
BRANCH  34  37
ATOM     37  C   UNL     1      25.685   5.285  13.590  1.00  0.00     0.196 A 
ATOM     38  N   UNL     1      24.840   5.299  12.547  1.00  0.00    -0.232 NA
ATOM     39  N   UNL     1      26.079   6.543  13.789  1.00  0.00    -0.341 N 
ATOM     40  C   UNL     1      24.689   6.547  12.078  1.00  0.00     0.131 A 
ATOM     41  C   UNL     1      25.493   7.334  12.888  1.00  0.00     0.104 A 
ATOM     42  H   UNL     1      26.753   6.843  14.554  1.00  0.00     0.168 HD
ENDBRANCH  34  37
ENDBRANCH   8  33
ENDBRANCH   5   8
ENDBRANCH   3   4
ENDBRANCH   2   3
ENDBRANCH   1   2
BRANCH   1  43
ATOM     43  C   UNL     1      23.328   7.910  20.238  1.00  0.00     0.000 C 
BRANCH  43  44
ATOM     44  C   UNL     1      23.271   9.383  20.401  1.00  0.00     0.000 C 
BRANCH  44  45
ATOM     45  C   UNL     1      22.933   9.794  21.831  1.00  0.00     0.000 C 
BRANCH  45  46
ATOM     46  C   UNL     1      24.113  10.536  22.453  1.00  0.00     0.000 C 
BRANCH  46  47
ATOM     47  C   UNL     1      25.033   9.596  23.159  1.00  0.00     0.000 C 
BRANCH  47  48
ATOM     48  C   UNL     1      26.331   9.280  22.495  1.00  0.00     0.000 C 
BRANCH  48  49
ATOM     49  C   UNL     1      26.768  10.120  21.397  1.00  0.00     0.001 C 
BRANCH  49  50
ATOM     50  C   UNL     1      26.996  10.039  20.062  1.00  0.00     0.009 C 
BRANCH  50  51
ATOM     51  C   UNL     1      27.629  10.576  18.792  1.00  0.00    -0.012 C 
BRANCH  51  52
ATOM     52  C   UNL     1      28.681   9.589  18.396  1.00  0.00    -0.018 C 
ATOM     53  C   UNL     1      29.792  10.179  17.575  1.00  0.00     0.033 C 
ATOM     54  C   UNL     1      29.561   9.099  19.524  1.00  0.00     0.033 C 
ATOM     55  C   UNL     1      28.300   8.260  17.811  1.00  0.00     0.033 C 
ATOM     56  C   UNL     1      30.960   9.248  17.291  1.00  0.00     0.101 C 
ATOM     57  C   UNL     1      30.644   8.139  19.210  1.00  0.00     0.101 C 
ATOM     58  C   UNL     1      29.496   7.444  17.286  1.00  0.00     0.101 C 
ATOM     59  C   UNL     1      31.732   8.838  18.490  1.00  0.00     0.051 C 
ATOM     60  C   UNL     1      30.446   8.136  16.424  1.00  0.00     0.051 C 
ATOM     61  C   UNL     1      30.316   6.901  18.433  1.00  0.00     0.051 C 
BRANCH  56  62
ATOM     62  S   UNL     1      32.141  10.159  16.289  1.00  0.00     0.270 S 
ATOM     63  O   UNL     1      31.700  10.141  14.847  1.00  0.00    -0.199 OA
ATOM     64  O   UNL     1      32.238  11.541  16.809  1.00  0.00    -0.199 OA
BRANCH  62  65
ATOM     65  O   UNL     1      33.642   9.443  16.410  1.00  0.00    -0.285 OA
ATOM     66  H   UNL     1      33.838   8.832  15.655  1.00  0.00     0.234 HD
ENDBRANCH  62  65
ENDBRANCH  56  62
BRANCH  57  67
ATOM     67  S   UNL     1      31.277   7.543  20.776  1.00  0.00     0.270 S 
ATOM     68  O   UNL     1      32.732   7.135  20.614  1.00  0.00    -0.199 OA
ATOM     69  O   UNL     1      30.563   6.288  21.198  1.00  0.00    -0.199 OA
BRANCH  67  70
ATOM     70  O   UNL     1      31.195   8.661  21.993  1.00  0.00    -0.285 OA
ATOM     71  H   UNL     1      31.671   9.489  21.713  1.00  0.00     0.234 HD
ENDBRANCH  67  70
ENDBRANCH  57  67
BRANCH  58  72
ATOM     72  S   UNL     1      28.808   6.055  16.383  1.00  0.00     0.270 S 
ATOM     73  O   UNL     1      27.375   5.865  16.780  1.00  0.00    -0.199 OA
ATOM     74  O   UNL     1      29.582   4.823  16.743  1.00  0.00    -0.199 OA
BRANCH  72  75
ATOM     75  O   UNL     1      28.845   6.374  14.743  1.00  0.00    -0.285 OA
ATOM     76  H   UNL     1      27.943   6.749  14.510  1.00  0.00     0.234 HD
ENDBRANCH  72  75
ENDBRANCH  58  72
ENDBRANCH  51  52
BRANCH  51  77
ATOM     77  C   UNL     1      26.530  10.930  17.814  1.00  0.00    -0.018 C 
ATOM     78  C   UNL     1      26.833  11.286  16.427  1.00  0.00     0.033 C 
ATOM     79  C   UNL     1      25.335  11.556  18.484  1.00  0.00     0.033 C 
ATOM     80  C   UNL     1      25.692   9.666  17.397  1.00  0.00     0.033 C 
ATOM     81  C   UNL     1      25.597  11.738  15.610  1.00  0.00     0.101 C 
ATOM     82  C   UNL     1      24.310  12.137  17.556  1.00  0.00     0.101 C 
ATOM     83  C   UNL     1      24.440  10.002  16.619  1.00  0.00     0.101 C 
ATOM     84  C   UNL     1      24.817  12.790  16.330  1.00  0.00     0.051 C 
ATOM     85  C   UNL     1      24.811  10.537  15.217  1.00  0.00     0.051 C 
ATOM     86  C   UNL     1      23.450  10.908  17.133  1.00  0.00     0.051 C 
BRANCH  81  87
ATOM     87  S   UNL     1      26.161  12.455  14.069  1.00  0.00     0.270 S 
ATOM     88  O   UNL     1      25.330  13.620  13.677  1.00  0.00    -0.199 OA
ATOM     89  O   UNL     1      27.601  12.882  14.183  1.00  0.00    -0.199 OA
BRANCH  87  90
ATOM     90  O   UNL     1      26.000  11.254  12.906  1.00  0.00    -0.285 OA
ATOM     91  H   UNL     1      25.460  11.520  12.144  1.00  0.00     0.234 HD
ENDBRANCH  87  90
ENDBRANCH  81  87
BRANCH  82  92
ATOM     92  S   UNL     1      23.262  13.243  18.445  1.00  0.00     0.270 S 
ATOM     93  O   UNL     1      23.762  14.666  18.356  1.00  0.00    -0.199 OA
ATOM     94  O   UNL     1      23.310  12.850  19.916  1.00  0.00    -0.199 OA
BRANCH  92  95
ATOM     95  O   UNL     1      21.671  13.197  17.986  1.00  0.00    -0.285 OA
ATOM     96  H   UNL     1      21.493  13.646  17.120  1.00  0.00     0.234 HD
ENDBRANCH  92  95
ENDBRANCH  82  92
BRANCH  83  97
ATOM     97  S   UNL     1      23.637   8.410  16.345  1.00  0.00     0.270 S 
ATOM     98  O   UNL     1      22.413   8.271  17.171  1.00  0.00    -0.199 OA
ATOM     99  O   UNL     1      23.216   8.406  14.896  1.00  0.00    -0.199 OA
BRANCH  97 100
ATOM    100  O   UNL     1      24.737   7.181  16.582  1.00  0.00    -0.285 OA
ATOM    101  H   UNL     1      25.235   7.381  17.404  1.00  0.00     0.234 HD
ENDBRANCH  97 100
ENDBRANCH  83  97
ENDBRANCH  51  77
BRANCH  51 102
ATOM    102  C   UNL     1      28.241  11.946  19.201  1.00  0.00    -0.018 C 
ATOM    103  C   UNL     1      29.239  11.882  20.262  1.00  0.00     0.033 C 
ATOM    104  C   UNL     1      28.824  12.660  17.978  1.00  0.00     0.033 C 
ATOM    105  C   UNL     1      27.319  13.016  19.585  1.00  0.00     0.033 C 
ATOM    106  C   UNL     1      30.060  13.161  20.511  1.00  0.00     0.101 C 
ATOM    107  C   UNL     1      29.623  13.910  18.360  1.00  0.00     0.101 C 
ATOM    108  C   UNL     1      28.024  14.318  19.989  1.00  0.00     0.101 C 
ATOM    109  C   UNL     1      30.745  13.625  19.283  1.00  0.00     0.051 C 
ATOM    110  C   UNL     1      29.101  14.230  20.977  1.00  0.00     0.051 C 
ATOM    111  C   UNL     1      28.675  14.969  18.788  1.00  0.00     0.051 C 
BRANCH 106 112
ATOM    112  S   UNL     1      31.195  12.731  21.820  1.00  0.00     0.270 S 
ATOM    113  O   UNL     1      32.185  13.812  22.045  1.00  0.00    -0.199 OA
ATOM    114  O   UNL     1      31.847  11.434  21.406  1.00  0.00    -0.199 OA
BRANCH 112 115
ATOM    115  O   UNL     1      30.268  12.392  23.186  1.00  0.00    -0.285 OA
ATOM    116  H   UNL     1      29.428  12.904  23.201  1.00  0.00     0.234 HD
ENDBRANCH 112 115
ENDBRANCH 106 112
BRANCH 107 117
ATOM    117  S   UNL     1      30.395  14.590  16.879  1.00  0.00     0.270 S 
ATOM    118  O   UNL     1      29.542  15.825  16.552  1.00  0.00    -0.199 OA
ATOM    119  O   UNL     1      31.753  15.054  17.219  1.00  0.00    -0.199 OA
BRANCH 117 120
ATOM    120  O   UNL     1      30.288  13.548  15.594  1.00  0.00    -0.285 OA
ATOM    121  H   UNL     1      30.882  12.785  15.726  1.00  0.00     0.234 HD
ENDBRANCH 117 120
ENDBRANCH 107 117
BRANCH 108 122
ATOM    122  S   UNL     1      26.768  15.436  20.561  1.00  0.00     0.270 S 
ATOM    123  O   UNL     1      27.179  16.163  21.807  1.00  0.00    -0.199 OA
ATOM    124  O   UNL     1      26.480  16.458  19.474  1.00  0.00    -0.199 OA
BRANCH 122 125
ATOM    125  O   UNL     1      25.358  14.602  20.880  1.00  0.00    -0.285 OA
ATOM    126  H   UNL     1      25.220  13.948  20.146  1.00  0.00     0.234 HD
ENDBRANCH 122 125
ENDBRANCH 108 122
ENDBRANCH  51 102
ENDBRANCH  50  51
ENDBRANCH  49  50
ENDBRANCH  48  49
ENDBRANCH  47  48
ENDBRANCH  46  47
ENDBRANCH  45  46
ENDBRANCH  44  45
ENDBRANCH  43  44
ENDBRANCH   1  43
TORSDOF 43
ENDMDL
MODEL 8
REMARK VINA RESULT:    -9.736      3.308      7.424
REMARK INTER + INTRA:         -41.011
REMARK INTER:                 -26.532
REMARK INTRA:                 -14.479
REMARK UNBOUND:                -9.362
REMARK SMILES NC(=O)c1ccccc1OCc1cccc(C(=O)NC[C@@H](NC(=O)c2ncc[nH]2)C(=O)NCCCCCCCCCCCC([C@]23C[C@]4(S(=O)(=O)O)C[C@](S(=O)(=O)O)(C2)C[C@](S(=O)(=O)O)(C3)C4)([C@]23C[C@]4(S(=O)(=O)O)C[C@](S(=O)(=O)O)(C2)C[C@](S(=O)(=O)O)(C3)C4)[C@]23C[C@]4(S(=O)(=O)O)C[C@](S(=O)(=O)O)(C2)C[C@](S(=O)(=O)O)(C3)C4)c1
REMARK SMILES IDX 35 1 34 2 33 3 32 4 30 5 31 6 21 8 20 9 19 10 18 11 17 12
REMARK SMILES IDX 16 14 15 15 111 16 14 17 12 18 13 19 11 20 10 21 9 22 4 23
REMARK SMILES IDX 8 24 5 25 7 26 6 27 2 28 1 29 3 30 22 33 23 34 24 36 25 37
REMARK SMILES IDX 26 38 29 39 27 40 28 41 36 43 37 44 38 45 39 46 40 47 41 48
REMARK SMILES IDX 42 49 43 50 44 51 67 52 80 53 87 54 68 55 75 56 82 57 69 58
REMARK SMILES IDX 81 59 74 60 88 61 76 62 77 63 78 64 79 65 83 67 84 68 85 69
REMARK SMILES IDX 86 70 70 72 71 73 72 74 73 75 45 77 46 78 58 79 65 80 47 81
REMARK SMILES IDX 53 82 60 83 52 84 66 85 59 86 48 87 49 88 50 89 51 90 54 92
REMARK SMILES IDX 55 93 56 94 57 95 61 97 62 98 63 99 64 100 89 102 102 103
REMARK SMILES IDX 109 104 90 105 97 106 104 107 91 108 103 109 96 110 110 111
REMARK SMILES IDX 98 112 99 113 100 114 101 115 105 117 106 118 107 119
REMARK SMILES IDX 108 120 92 122 93 123 94 124 95 125
REMARK H PARENT 32 7 19 13 1 31 1 32 22 35 29 42 79 66 86 71 73 76 51 91 57 96
REMARK H PARENT 64 101 101 116 108 121 95 126
REMARK Flexibility Score: inf
ROOT
ATOM      1  C   UNL     1      28.453   6.297  17.007  1.00  0.00     0.002 C 
ENDROOT
BRANCH   1   2
ATOM      2  C   UNL     1      28.725   5.138  16.135  1.00  0.00     0.021 C 
BRANCH   2   3
ATOM      3  C   UNL     1      27.549   4.614  15.352  1.00  0.00     0.116 C 
BRANCH   3   4
ATOM      4  N   UNL     1      26.850   3.622  16.115  1.00  0.00    -0.354 N 
ATOM      5  C   UNL     1      26.243   2.439  15.625  1.00  0.00     0.244 C 
ATOM      6  O   UNL     1      26.316   2.229  14.404  1.00  0.00    -0.273 OA
ATOM      7  H   UNL     1      26.777   3.788  17.168  1.00  0.00     0.163 HD
BRANCH   5   8
ATOM      8  C   UNL     1      25.553   1.499  16.600  1.00  0.00     0.191 C 
BRANCH   8   9
ATOM      9  C   UNL     1      25.006   2.240  17.752  1.00  0.00     0.151 C 
BRANCH   9  10
ATOM     10  N   UNL     1      23.625   2.064  18.068  1.00  0.00    -0.349 N 
ATOM     11  O   UNL     1      23.326   3.320  20.059  1.00  0.00    -0.269 OA
ATOM     12  C   UNL     1      22.885   2.575  19.134  1.00  0.00     0.251 C 
ATOM     13  H   UNL     1      23.077   1.450  17.383  1.00  0.00     0.163 HD
BRANCH  12  14
ATOM     14  C   UNL     1      21.459   2.257  19.256  1.00  0.00     0.040 A 
ATOM     15  C   UNL     1      20.700   2.733  20.284  1.00  0.00     0.014 A 
ATOM     16  C   UNL     1      20.896   1.432  18.280  1.00  0.00     0.021 A 
ATOM     17  C   UNL     1      19.375   2.373  20.332  1.00  0.00     0.001 A 
ATOM     18  C   UNL     1      19.547   1.073  18.341  1.00  0.00    -0.010 A 
ATOM     19  C   UNL     1      18.796   1.564  19.393  1.00  0.00     0.007 A 
BRANCH  18  20
ATOM     20  C   UNL     1      18.964   0.188  17.311  1.00  0.00     0.265 C 
BRANCH  20  21
ATOM     21  O   UNL     1      19.343   0.524  16.034  1.00  0.00    -0.488 OA
BRANCH  21  22
ATOM     22  C   UNL     1      18.680   1.280  15.103  1.00  0.00     0.132 A 
ATOM     23  C   UNL     1      19.436   1.900  14.104  1.00  0.00     0.081 A 
ATOM     24  C   UNL     1      17.306   1.426  15.154  1.00  0.00     0.047 A 
ATOM     25  C   UNL     1      18.793   2.663  13.166  1.00  0.00     0.018 A 
ATOM     26  C   UNL     1      16.690   2.199  14.198  1.00  0.00     0.004 A 
ATOM     27  C   UNL     1      17.434   2.815  13.207  1.00  0.00     0.001 A 
BRANCH  23  28
ATOM     28  C   UNL     1      20.904   1.726  14.054  1.00  0.00     0.252 C 
ATOM     29  N   UNL     1      21.625   2.229  15.169  1.00  0.00    -0.365 N 
ATOM     30  O   UNL     1      21.386   1.162  13.063  1.00  0.00    -0.269 OA
ATOM     31  H   UNL     1      21.607   1.657  16.062  1.00  0.00     0.159 HD
ATOM     32  H   UNL     1      22.153   3.115  15.135  1.00  0.00     0.159 HD
ENDBRANCH  23  28
ENDBRANCH  21  22
ENDBRANCH  20  21
ENDBRANCH  18  20
ENDBRANCH  12  14
ENDBRANCH   9  10
ENDBRANCH   8   9
BRANCH   8  33
ATOM     33  N   UNL     1      24.592   0.719  15.903  1.00  0.00    -0.336 N 
ATOM     34  C   UNL     1      23.995  -0.499  16.271  1.00  0.00     0.287 C 
ATOM     35  H   UNL     1      24.236   1.105  14.952  1.00  0.00     0.164 HD
ATOM     36  O   UNL     1      24.247  -1.122  17.324  1.00  0.00    -0.266 OA
BRANCH  34  37
ATOM     37  C   UNL     1      22.989  -1.124  15.367  1.00  0.00     0.196 A 
ATOM     38  N   UNL     1      23.183  -1.421  14.072  1.00  0.00    -0.232 NA
ATOM     39  N   UNL     1      21.741  -1.484  15.668  1.00  0.00    -0.341 N 
ATOM     40  C   UNL     1      22.076  -1.964  13.542  1.00  0.00     0.131 A 
ATOM     41  C   UNL     1      21.160  -1.997  14.582  1.00  0.00     0.104 A 
ATOM     42  H   UNL     1      21.302  -1.371  16.629  1.00  0.00     0.168 HD
ENDBRANCH  34  37
ENDBRANCH   8  33
ENDBRANCH   5   8
ENDBRANCH   3   4
ENDBRANCH   2   3
ENDBRANCH   1   2
BRANCH   1  43
ATOM     43  C   UNL     1      29.577   7.021  17.624  1.00  0.00     0.000 C 
BRANCH  43  44
ATOM     44  C   UNL     1      30.936   6.817  17.065  1.00  0.00     0.000 C 
BRANCH  44  45
ATOM     45  C   UNL     1      31.305   7.881  16.037  1.00  0.00     0.000 C 
BRANCH  45  46
ATOM     46  C   UNL     1      31.360   7.262  14.643  1.00  0.00     0.000 C 
BRANCH  46  47
ATOM     47  C   UNL     1      30.171   7.654  13.828  1.00  0.00     0.000 C 
BRANCH  47  48
ATOM     48  C   UNL     1      29.446   8.895  14.227  1.00  0.00     0.000 C 
BRANCH  48  49
ATOM     49  C   UNL     1      28.044   8.793  14.580  1.00  0.00     0.001 C 
BRANCH  49  50
ATOM     50  C   UNL     1      27.182   9.238  15.529  1.00  0.00     0.009 C 
BRANCH  50  51
ATOM     51  C   UNL     1      25.830   9.792  15.934  1.00  0.00    -0.012 C 
BRANCH  51  52
ATOM     52  C   UNL     1      24.822   9.136  15.045  1.00  0.00    -0.018 C 
ATOM     53  C   UNL     1      23.400   9.500  15.362  1.00  0.00     0.033 C 
ATOM     54  C   UNL     1      24.799   9.636  13.618  1.00  0.00     0.033 C 
ATOM     55  C   UNL     1      24.894   7.662  14.768  1.00  0.00     0.033 C 
ATOM     56  C   UNL     1      22.359   8.983  14.382  1.00  0.00     0.101 C 
ATOM     57  C   UNL     1      23.812   9.054  12.680  1.00  0.00     0.101 C 
ATOM     58  C   UNL     1      23.682   7.113  13.992  1.00  0.00     0.101 C 
ATOM     59  C   UNL     1      22.458   9.551  13.015  1.00  0.00     0.051 C 
ATOM     60  C   UNL     1      22.359   7.485  14.477  1.00  0.00     0.051 C 
ATOM     61  C   UNL     1      23.723   7.565  12.550  1.00  0.00     0.051 C 
BRANCH  56  62
ATOM     62  S   UNL     1      20.750   9.522  14.974  1.00  0.00     0.270 S 
ATOM     63  O   UNL     1      19.921   8.320  15.347  1.00  0.00    -0.199 OA
ATOM     64  O   UNL     1      20.948  10.425  16.130  1.00  0.00    -0.199 OA
BRANCH  62  65
ATOM     65  O   UNL     1      19.970  10.371  13.769  1.00  0.00    -0.285 OA
ATOM     66  H   UNL     1      20.558  11.032  13.323  1.00  0.00     0.234 HD
ENDBRANCH  62  65
ENDBRANCH  56  62
BRANCH  57  67
ATOM     67  S   UNL     1      24.251   9.632  11.043  1.00  0.00     0.270 S 
ATOM     68  O   UNL     1      23.505   8.817   9.999  1.00  0.00    -0.199 OA
ATOM     69  O   UNL     1      25.709   9.387  10.763  1.00  0.00    -0.199 OA
BRANCH  67  70
ATOM     70  O   UNL     1      23.900  11.228  10.786  1.00  0.00    -0.285 OA
ATOM     71  H   UNL     1      22.929  11.383  10.942  1.00  0.00     0.234 HD
ENDBRANCH  67  70
ENDBRANCH  57  67
BRANCH  58  72
ATOM     72  S   UNL     1      23.823   5.326  14.023  1.00  0.00     0.270 S 
ATOM     73  O   UNL     1      22.565   4.718  13.482  1.00  0.00    -0.199 OA
ATOM     74  O   UNL     1      24.006   4.888  15.445  1.00  0.00    -0.199 OA
BRANCH  72  75
ATOM     75  O   UNL     1      25.086   4.843  13.041  1.00  0.00    -0.285 OA
ATOM     76  H   UNL     1      24.881   3.900  12.763  1.00  0.00     0.234 HD
ENDBRANCH  72  75
ENDBRANCH  58  72
ENDBRANCH  51  52
BRANCH  51  77
ATOM     77  C   UNL     1      25.688   9.679  17.436  1.00  0.00    -0.018 C 
ATOM     78  C   UNL     1      24.517  10.214  18.131  1.00  0.00     0.033 C 
ATOM     79  C   UNL     1      27.016   9.670  18.146  1.00  0.00     0.033 C 
ATOM     80  C   UNL     1      25.387   8.202  17.884  1.00  0.00     0.033 C 
ATOM     81  C   UNL     1      24.604  10.118  19.674  1.00  0.00     0.101 C 
ATOM     82  C   UNL     1      26.947   9.790  19.639  1.00  0.00     0.101 C 
ATOM     83  C   UNL     1      25.480   7.993  19.378  1.00  0.00     0.101 C 
ATOM     84  C   UNL     1      25.894  10.671  20.187  1.00  0.00     0.051 C 
ATOM     85  C   UNL     1      24.315   8.719  20.090  1.00  0.00     0.051 C 
ATOM     86  C   UNL     1      26.663   8.335  20.117  1.00  0.00     0.051 C 
BRANCH  81  87
ATOM     87  S   UNL     1      23.285  11.100  20.384  1.00  0.00     0.270 S 
ATOM     88  O   UNL     1      22.391  11.647  19.333  1.00  0.00    -0.199 OA
ATOM     89  O   UNL     1      22.476  10.277  21.351  1.00  0.00    -0.199 OA
BRANCH  87  90
ATOM     90  O   UNL     1      24.028  12.376  21.184  1.00  0.00    -0.285 OA
ATOM     91  H   UNL     1      24.138  13.170  20.635  1.00  0.00     0.234 HD
ENDBRANCH  87  90
ENDBRANCH  81  87
BRANCH  82  92
ATOM     92  S   UNL     1      28.525  10.263  20.272  1.00  0.00     0.270 S 
ATOM     93  O   UNL     1      28.984   9.325  21.363  1.00  0.00    -0.199 OA
ATOM     94  O   UNL     1      28.379  11.640  20.907  1.00  0.00    -0.199 OA
BRANCH  92  95
ATOM     95  O   UNL     1      29.714  10.384  19.125  1.00  0.00    -0.285 OA
ATOM     96  H   UNL     1      29.795   9.583  18.548  1.00  0.00     0.234 HD
ENDBRANCH  92  95
ENDBRANCH  82  92
BRANCH  83  97
ATOM     97  S   UNL     1      25.178   6.229  19.607  1.00  0.00     0.270 S 
ATOM     98  O   UNL     1      25.430   5.470  18.358  1.00  0.00    -0.199 OA
ATOM     99  O   UNL     1      26.185   5.771  20.634  1.00  0.00    -0.199 OA
BRANCH  97 100
ATOM    100  O   UNL     1      23.648   5.999  20.224  1.00  0.00    -0.285 OA
ATOM    101  H   UNL     1      23.413   6.799  20.743  1.00  0.00     0.234 HD
ENDBRANCH  97 100
ENDBRANCH  83  97
ENDBRANCH  51  77
BRANCH  51 102
ATOM    102  C   UNL     1      25.931  11.321  15.668  1.00  0.00    -0.018 C 
ATOM    103  C   UNL     1      24.847  12.117  16.232  1.00  0.00     0.033 C 
ATOM    104  C   UNL     1      27.280  11.863  16.148  1.00  0.00     0.033 C 
ATOM    105  C   UNL     1      26.067  11.763  14.278  1.00  0.00     0.033 C 
ATOM    106  C   UNL     1      25.042  13.645  16.227  1.00  0.00     0.101 C 
ATOM    107  C   UNL     1      27.344  13.393  16.101  1.00  0.00     0.101 C 
ATOM    108  C   UNL     1      26.138  13.289  14.124  1.00  0.00     0.101 C 
ATOM    109  C   UNL     1      26.292  14.044  16.914  1.00  0.00     0.051 C 
ATOM    110  C   UNL     1      25.106  14.088  14.785  1.00  0.00     0.051 C 
ATOM    111  C   UNL     1      27.438  13.824  14.684  1.00  0.00     0.051 C 
BRANCH 106 112
ATOM    112  S   UNL     1      23.578  14.298  17.014  1.00  0.00     0.270 S 
ATOM    113  O   UNL     1      22.360  13.592  16.546  1.00  0.00    -0.199 OA
ATOM    114  O   UNL     1      23.546  15.772  16.691  1.00  0.00    -0.199 OA
BRANCH 112 115
ATOM    115  O   UNL     1      23.815  14.172  18.677  1.00  0.00    -0.285 OA
ATOM    116  H   UNL     1      24.118  15.020  19.075  1.00  0.00     0.234 HD
ENDBRANCH 112 115
ENDBRANCH 106 112
BRANCH 107 117
ATOM    117  S   UNL     1      28.902  13.939  16.826  1.00  0.00     0.270 S 
ATOM    118  O   UNL     1      29.971  13.312  15.919  1.00  0.00    -0.199 OA
ATOM    119  O   UNL     1      29.001  15.405  16.696  1.00  0.00    -0.199 OA
BRANCH 117 120
ATOM    120  O   UNL     1      29.118  13.333  18.354  1.00  0.00    -0.285 OA
ATOM    121  H   UNL     1      29.534  14.004  18.929  1.00  0.00     0.234 HD
ENDBRANCH 117 120
ENDBRANCH 107 117
BRANCH 108 122
ATOM    122  S   UNL     1      26.149  13.636  12.382  1.00  0.00     0.270 S 
ATOM    123  O   UNL     1      24.793  14.029  11.873  1.00  0.00    -0.199 OA
ATOM    124  O   UNL     1      27.119  14.772  12.107  1.00  0.00    -0.199 OA
BRANCH 122 125
ATOM    125  O   UNL     1      26.661  12.295  11.531  1.00  0.00    -0.285 OA
ATOM    126  H   UNL     1      26.477  12.459  10.569  1.00  0.00     0.234 HD
ENDBRANCH 122 125
ENDBRANCH 108 122
ENDBRANCH  51 102
ENDBRANCH  50  51
ENDBRANCH  49  50
ENDBRANCH  48  49
ENDBRANCH  47  48
ENDBRANCH  46  47
ENDBRANCH  45  46
ENDBRANCH  44  45
ENDBRANCH  43  44
ENDBRANCH   1  43
TORSDOF 43
ENDMDL
MODEL 9
REMARK VINA RESULT:    -9.727      1.541      3.936
REMARK INTER + INTRA:         -40.982
REMARK INTER:                 -33.046
REMARK INTRA:                  -7.937
REMARK UNBOUND:                -9.362
REMARK SMILES NC(=O)c1ccccc1OCc1cccc(C(=O)NC[C@@H](NC(=O)c2ncc[nH]2)C(=O)NCCCCCCCCCCCC([C@]23C[C@]4(S(=O)(=O)O)C[C@](S(=O)(=O)O)(C2)C[C@](S(=O)(=O)O)(C3)C4)([C@]23C[C@]4(S(=O)(=O)O)C[C@](S(=O)(=O)O)(C2)C[C@](S(=O)(=O)O)(C3)C4)[C@]23C[C@]4(S(=O)(=O)O)C[C@](S(=O)(=O)O)(C2)C[C@](S(=O)(=O)O)(C3)C4)c1
REMARK SMILES IDX 35 1 34 2 33 3 32 4 30 5 31 6 21 8 20 9 19 10 18 11 17 12
REMARK SMILES IDX 16 14 15 15 111 16 14 17 12 18 13 19 11 20 10 21 9 22 4 23
REMARK SMILES IDX 8 24 5 25 7 26 6 27 2 28 1 29 3 30 22 33 23 34 24 36 25 37
REMARK SMILES IDX 26 38 29 39 27 40 28 41 36 43 37 44 38 45 39 46 40 47 41 48
REMARK SMILES IDX 42 49 43 50 44 51 67 52 80 53 87 54 68 55 75 56 82 57 69 58
REMARK SMILES IDX 81 59 74 60 88 61 76 62 77 63 78 64 79 65 83 67 84 68 85 69
REMARK SMILES IDX 86 70 70 72 71 73 72 74 73 75 45 77 46 78 58 79 65 80 47 81
REMARK SMILES IDX 53 82 60 83 52 84 66 85 59 86 48 87 49 88 50 89 51 90 54 92
REMARK SMILES IDX 55 93 56 94 57 95 61 97 62 98 63 99 64 100 89 102 102 103
REMARK SMILES IDX 109 104 90 105 97 106 104 107 91 108 103 109 96 110 110 111
REMARK SMILES IDX 98 112 99 113 100 114 101 115 105 117 106 118 107 119
REMARK SMILES IDX 108 120 92 122 93 123 94 124 95 125
REMARK H PARENT 32 7 19 13 1 31 1 32 22 35 29 42 79 66 86 71 73 76 51 91 57 96
REMARK H PARENT 64 101 101 116 108 121 95 126
REMARK Flexibility Score: inf
ROOT
ATOM      1  C   UNL     1      21.974  -2.058  16.991  1.00  0.00     0.002 C 
ENDROOT
BRANCH   1   2
ATOM      2  C   UNL     1      21.049  -2.860  16.166  1.00  0.00     0.021 C 
BRANCH   2   3
ATOM      3  C   UNL     1      20.302  -3.952  16.889  1.00  0.00     0.116 C 
BRANCH   3   4
ATOM      4  N   UNL     1      18.972  -4.069  16.367  1.00  0.00    -0.354 N 
ATOM      5  C   UNL     1      17.834  -4.578  17.038  1.00  0.00     0.244 C 
ATOM      6  O   UNL     1      17.993  -4.973  18.205  1.00  0.00    -0.273 OA
ATOM      7  H   UNL     1      18.818  -3.736  15.363  1.00  0.00     0.163 HD
BRANCH   5   8
ATOM      8  C   UNL     1      16.497  -4.611  16.315  1.00  0.00     0.191 C 
BRANCH   8   9
ATOM      9  C   UNL     1      16.049  -3.248  15.971  1.00  0.00     0.151 C 
BRANCH   9  10
ATOM     10  N   UNL     1      17.045  -2.247  15.762  1.00  0.00    -0.349 N 
ATOM     11  O   UNL     1      15.803  -0.238  15.538  1.00  0.00    -0.269 OA
ATOM     12  C   UNL     1      16.899  -0.874  15.569  1.00  0.00     0.251 C 
ATOM     13  H   UNL     1      18.055  -2.605  15.756  1.00  0.00     0.163 HD
BRANCH  12  14
ATOM     14  C   UNL     1      18.082  -0.030  15.374  1.00  0.00     0.040 A 
ATOM     15  C   UNL     1      18.574   0.245  14.133  1.00  0.00     0.014 A 
ATOM     16  C   UNL     1      18.705   0.481  16.515  1.00  0.00     0.021 A 
ATOM     17  C   UNL     1      19.696   1.031  14.040  1.00  0.00     0.001 A 
ATOM     18  C   UNL     1      19.846   1.278  16.407  1.00  0.00    -0.010 A 
ATOM     19  C   UNL     1      20.331   1.544  15.139  1.00  0.00     0.007 A 
BRANCH  18  20
ATOM     20  C   UNL     1      20.507   1.803  17.621  1.00  0.00     0.265 C 
BRANCH  20  21
ATOM     21  O   UNL     1      19.671   1.856  18.709  1.00  0.00    -0.488 OA
BRANCH  21  22
ATOM     22  C   UNL     1      19.921   2.323  19.973  1.00  0.00     0.132 A 
ATOM     23  C   UNL     1      18.826   2.645  20.781  1.00  0.00     0.081 A 
ATOM     24  C   UNL     1      21.217   2.472  20.432  1.00  0.00     0.047 A 
ATOM     25  C   UNL     1      19.056   3.117  22.046  1.00  0.00     0.018 A 
ATOM     26  C   UNL     1      21.413   2.949  21.707  1.00  0.00     0.004 A 
ATOM     27  C   UNL     1      20.333   3.269  22.511  1.00  0.00     0.001 A 
BRANCH  23  28
ATOM     28  C   UNL     1      17.445   2.469  20.282  1.00  0.00     0.252 C 
ATOM     29  N   UNL     1      17.266   2.643  18.884  1.00  0.00    -0.365 N 
ATOM     30  O   UNL     1      16.566   2.186  21.105  1.00  0.00    -0.269 OA
ATOM     31  H   UNL     1      17.575   1.852  18.249  1.00  0.00     0.159 HD
ATOM     32  H   UNL     1      16.853   3.498  18.480  1.00  0.00     0.159 HD
ENDBRANCH  23  28
ENDBRANCH  21  22
ENDBRANCH  20  21
ENDBRANCH  18  20
ENDBRANCH  12  14
ENDBRANCH   9  10
ENDBRANCH   8   9
BRANCH   8  33
ATOM     33  N   UNL     1      16.583  -5.491  15.203  1.00  0.00    -0.336 N 
ATOM     34  C   UNL     1      15.611  -6.356  14.672  1.00  0.00     0.287 C 
ATOM     35  H   UNL     1      17.520  -5.506  14.654  1.00  0.00     0.164 HD
ATOM     36  O   UNL     1      14.460  -6.498  15.136  1.00  0.00    -0.266 OA
BRANCH  34  37
ATOM     37  C   UNL     1      15.938  -7.180  13.475  1.00  0.00     0.196 A 
ATOM     38  N   UNL     1      15.554  -6.913  12.217  1.00  0.00    -0.232 NA
ATOM     39  N   UNL     1      16.645  -8.309  13.436  1.00  0.00    -0.341 N 
ATOM     40  C   UNL     1      16.005  -7.856  11.375  1.00  0.00     0.131 A 
ATOM     41  C   UNL     1      16.704  -8.746  12.176  1.00  0.00     0.104 A 
ATOM     42  H   UNL     1      17.084  -8.769  14.288  1.00  0.00     0.168 HD
ENDBRANCH  34  37
ENDBRANCH   8  33
ENDBRANCH   5   8
ENDBRANCH   3   4
ENDBRANCH   2   3
ENDBRANCH   1   2
BRANCH   1  43
ATOM     43  C   UNL     1      22.909  -1.128  16.337  1.00  0.00     0.000 C 
BRANCH  43  44
ATOM     44  C   UNL     1      24.170  -0.789  17.041  1.00  0.00     0.000 C 
BRANCH  44  45
ATOM     45  C   UNL     1      24.059   0.507  17.836  1.00  0.00     0.000 C 
BRANCH  45  46
ATOM     46  C   UNL     1      24.857   1.612  17.149  1.00  0.00     0.000 C 
BRANCH  46  47
ATOM     47  C   UNL     1      24.733   2.907  17.882  1.00  0.00     0.000 C 
BRANCH  47  48
ATOM     48  C   UNL     1      25.409   4.097  17.290  1.00  0.00     0.000 C 
BRANCH  48  49
ATOM     49  C   UNL     1      25.840   5.160  18.177  1.00  0.00     0.001 C 
BRANCH  49  50
ATOM     50  C   UNL     1      25.987   6.509  18.178  1.00  0.00     0.009 C 
BRANCH  50  51
ATOM     51  C   UNL     1      26.513   7.784  17.546  1.00  0.00    -0.012 C 
BRANCH  51  52
ATOM     52  C   UNL     1      25.952   7.830  16.160  1.00  0.00    -0.018 C 
ATOM     53  C   UNL     1      24.486   8.149  16.105  1.00  0.00     0.033 C 
ATOM     54  C   UNL     1      26.402   9.006  15.322  1.00  0.00     0.033 C 
ATOM     55  C   UNL     1      26.245   6.728  15.182  1.00  0.00     0.033 C 
ATOM     56  C   UNL     1      23.916   8.365  14.713  1.00  0.00     0.101 C 
ATOM     57  C   UNL     1      25.872   9.137  13.946  1.00  0.00     0.101 C 
ATOM     58  C   UNL     1      25.445   6.831  13.870  1.00  0.00     0.101 C 
ATOM     59  C   UNL     1      24.452   9.550  13.999  1.00  0.00     0.051 C 
ATOM     60  C   UNL     1      24.009   7.056  13.983  1.00  0.00     0.051 C 
ATOM     61  C   UNL     1      25.963   7.966  13.017  1.00  0.00     0.051 C 
BRANCH  56  62
ATOM     62  S   UNL     1      22.162   8.710  14.898  1.00  0.00     0.270 S 
ATOM     63  O   UNL     1      21.841  10.044  14.275  1.00  0.00    -0.199 OA
ATOM     64  O   UNL     1      21.394   7.616  14.262  1.00  0.00    -0.199 OA
BRANCH  62  65
ATOM     65  O   UNL     1      21.772   8.755  16.519  1.00  0.00    -0.285 OA
ATOM     66  H   UNL     1      20.995   9.340  16.710  1.00  0.00     0.234 HD
ENDBRANCH  62  65
ENDBRANCH  56  62
BRANCH  57  67
ATOM     67  S   UNL     1      26.820  10.430  13.148  1.00  0.00     0.270 S 
ATOM     68  O   UNL     1      26.321  11.788  13.615  1.00  0.00    -0.199 OA
ATOM     69  O   UNL     1      26.593  10.419  11.661  1.00  0.00    -0.199 OA
BRANCH  67  70
ATOM     70  O   UNL     1      28.443  10.351  13.460  1.00  0.00    -0.285 OA
ATOM     71  H   UNL     1      28.598  10.465  14.436  1.00  0.00     0.234 HD
ENDBRANCH  67  70
ENDBRANCH  57  67
BRANCH  58  72
ATOM     72  S   UNL     1      25.718   5.295  12.985  1.00  0.00     0.270 S 
ATOM     73  O   UNL     1      26.194   5.599  11.597  1.00  0.00    -0.199 OA
ATOM     74  O   UNL     1      24.416   4.555  12.904  1.00  0.00    -0.199 OA
BRANCH  72  75
ATOM     75  O   UNL     1      26.909   4.408  13.750  1.00  0.00    -0.285 OA
ATOM     76  H   UNL     1      27.150   3.662  13.123  1.00  0.00     0.234 HD
ENDBRANCH  72  75
ENDBRANCH  58  72
ENDBRANCH  51  52
BRANCH  51  77
ATOM     77  C   UNL     1      26.259   8.936  18.494  1.00  0.00    -0.018 C 
ATOM     78  C   UNL     1      27.089  10.141  18.464  1.00  0.00     0.033 C 
ATOM     79  C   UNL     1      25.668   8.490  19.805  1.00  0.00     0.033 C 
ATOM     80  C   UNL     1      24.951   9.722  18.119  1.00  0.00     0.033 C 
ATOM     81  C   UNL     1      26.762  11.157  19.586  1.00  0.00     0.101 C 
ATOM     82  C   UNL     1      25.604   9.543  20.872  1.00  0.00     0.101 C 
ATOM     83  C   UNL     1      24.524  10.721  19.170  1.00  0.00     0.101 C 
ATOM     84  C   UNL     1      26.728  10.501  20.929  1.00  0.00     0.051 C 
ATOM     85  C   UNL     1      25.525  11.899  19.222  1.00  0.00     0.051 C 
ATOM     86  C   UNL     1      24.305  10.335  20.536  1.00  0.00     0.051 C 
BRANCH  81  87
ATOM     87  S   UNL     1      28.056  12.395  19.631  1.00  0.00     0.270 S 
ATOM     88  O   UNL     1      28.703  12.454  20.965  1.00  0.00    -0.199 OA
ATOM     89  O   UNL     1      29.096  12.108  18.581  1.00  0.00    -0.199 OA
BRANCH  87  90
ATOM     90  O   UNL     1      27.308  13.867  19.324  1.00  0.00    -0.285 OA
ATOM     91  H   UNL     1      26.602  14.085  19.954  1.00  0.00     0.234 HD
ENDBRANCH  87  90
ENDBRANCH  81  87
BRANCH  82  92
ATOM     92  S   UNL     1      25.375   8.781  22.447  1.00  0.00     0.270 S 
ATOM     93  O   UNL     1      24.157   9.331  23.152  1.00  0.00    -0.199 OA
ATOM     94  O   UNL     1      26.579   9.128  23.312  1.00  0.00    -0.199 OA
BRANCH  92  95
ATOM     95  O   UNL     1      25.275   7.129  22.400  1.00  0.00    -0.285 OA
ATOM     96  H   UNL     1      25.029   6.719  23.268  1.00  0.00     0.234 HD
ENDBRANCH  92  95
ENDBRANCH  82  92
BRANCH  83  97
ATOM     97  S   UNL     1      22.981  11.410  18.539  1.00  0.00     0.270 S 
ATOM     98  O   UNL     1      22.731  12.767  19.082  1.00  0.00    -0.199 OA
ATOM     99  O   UNL     1      23.169  11.541  17.047  1.00  0.00    -0.199 OA
BRANCH  97 100
ATOM    100  O   UNL     1      21.734  10.343  18.825  1.00  0.00    -0.285 OA
ATOM    101  H   UNL     1      20.930  10.871  19.028  1.00  0.00     0.234 HD
ENDBRANCH  97 100
ENDBRANCH  83  97
ENDBRANCH  51  77
BRANCH  51 102
ATOM    102  C   UNL     1      28.059   7.617  17.542  1.00  0.00    -0.018 C 
ATOM    103  C   UNL     1      28.787   8.650  16.813  1.00  0.00     0.033 C 
ATOM    104  C   UNL     1      28.593   7.515  18.974  1.00  0.00     0.033 C 
ATOM    105  C   UNL     1      28.605   6.341  17.076  1.00  0.00     0.033 C 
ATOM    106  C   UNL     1      30.315   8.679  17.005  1.00  0.00     0.101 C 
ATOM    107  C   UNL     1      30.123   7.563  19.030  1.00  0.00     0.101 C 
ATOM    108  C   UNL     1      30.139   6.288  17.093  1.00  0.00     0.101 C 
ATOM    109  C   UNL     1      30.689   8.794  18.433  1.00  0.00     0.051 C 
ATOM    110  C   UNL     1      30.864   7.386  16.452  1.00  0.00     0.051 C 
ATOM    111  C   UNL     1      30.660   6.278  18.513  1.00  0.00     0.051 C 
BRANCH 106 112
ATOM    112  S   UNL     1      30.875  10.063  16.025  1.00  0.00     0.270 S 
ATOM    113  O   UNL     1      31.298   9.624  14.673  1.00  0.00    -0.199 OA
ATOM    114  O   UNL     1      32.003  10.700  16.800  1.00  0.00    -0.199 OA
BRANCH 112 115
ATOM    115  O   UNL     1      29.618  11.184  15.992  1.00  0.00    -0.285 OA
ATOM    116  H   UNL     1      28.879  10.931  16.591  1.00  0.00     0.234 HD
ENDBRANCH 112 115
ENDBRANCH 106 112
BRANCH 107 117
ATOM    117  S   UNL     1      30.648   7.592  20.754  1.00  0.00     0.270 S 
ATOM    118  O   UNL     1      29.520   8.350  21.471  1.00  0.00    -0.199 OA
ATOM    119  O   UNL     1      30.667   6.211  21.271  1.00  0.00    -0.199 OA
BRANCH 117 120
ATOM    120  O   UNL     1      32.047   8.460  20.959  1.00  0.00    -0.285 OA
ATOM    121  H   UNL     1      32.036   8.921  21.819  1.00  0.00     0.234 HD
ENDBRANCH 117 120
ENDBRANCH 107 117
BRANCH 108 122
ATOM    122  S   UNL     1      30.615   4.741  16.362  1.00  0.00     0.270 S 
ATOM    123  O   UNL     1      29.445   4.005  15.779  1.00  0.00    -0.199 OA
ATOM    124  O   UNL     1      31.624   5.003  15.257  1.00  0.00    -0.199 OA
BRANCH 122 125
ATOM    125  O   UNL     1      31.335   3.761  17.504  1.00  0.00    -0.285 OA
ATOM    126  H   UNL     1      32.319   3.841  17.395  1.00  0.00     0.234 HD
ENDBRANCH 122 125
ENDBRANCH 108 122
ENDBRANCH  51 102
ENDBRANCH  50  51
ENDBRANCH  49  50
ENDBRANCH  48  49
ENDBRANCH  47  48
ENDBRANCH  46  47
ENDBRANCH  45  46
ENDBRANCH  44  45
ENDBRANCH  43  44
ENDBRANCH   1  43
TORSDOF 43
ENDMDL
MODEL 10
REMARK VINA RESULT:    -9.723      2.767      7.433
REMARK INTER + INTRA:         -40.969
REMARK INTER:                 -27.714
REMARK INTRA:                 -13.255
REMARK UNBOUND:                -9.362
REMARK SMILES NC(=O)c1ccccc1OCc1cccc(C(=O)NC[C@@H](NC(=O)c2ncc[nH]2)C(=O)NCCCCCCCCCCCC([C@]23C[C@]4(S(=O)(=O)O)C[C@](S(=O)(=O)O)(C2)C[C@](S(=O)(=O)O)(C3)C4)([C@]23C[C@]4(S(=O)(=O)O)C[C@](S(=O)(=O)O)(C2)C[C@](S(=O)(=O)O)(C3)C4)[C@]23C[C@]4(S(=O)(=O)O)C[C@](S(=O)(=O)O)(C2)C[C@](S(=O)(=O)O)(C3)C4)c1
REMARK SMILES IDX 35 1 34 2 33 3 32 4 30 5 31 6 21 8 20 9 19 10 18 11 17 12
REMARK SMILES IDX 16 14 15 15 111 16 14 17 12 18 13 19 11 20 10 21 9 22 4 23
REMARK SMILES IDX 8 24 5 25 7 26 6 27 2 28 1 29 3 30 22 33 23 34 24 36 25 37
REMARK SMILES IDX 26 38 29 39 27 40 28 41 36 43 37 44 38 45 39 46 40 47 41 48
REMARK SMILES IDX 42 49 43 50 44 51 67 52 80 53 87 54 68 55 75 56 82 57 69 58
REMARK SMILES IDX 81 59 74 60 88 61 76 62 77 63 78 64 79 65 83 67 84 68 85 69
REMARK SMILES IDX 86 70 70 72 71 73 72 74 73 75 45 77 46 78 58 79 65 80 47 81
REMARK SMILES IDX 53 82 60 83 52 84 66 85 59 86 48 87 49 88 50 89 51 90 54 92
REMARK SMILES IDX 55 93 56 94 57 95 61 97 62 98 63 99 64 100 89 102 102 103
REMARK SMILES IDX 109 104 90 105 97 106 104 107 91 108 103 109 96 110 110 111
REMARK SMILES IDX 98 112 99 113 100 114 101 115 105 117 106 118 107 119
REMARK SMILES IDX 108 120 92 122 93 123 94 124 95 125
REMARK H PARENT 32 7 19 13 1 31 1 32 22 35 29 42 79 66 86 71 73 76 51 91 57 96
REMARK H PARENT 64 101 101 116 108 121 95 126
REMARK Flexibility Score: inf
ROOT
ATOM      1  C   UNL     1      29.148   5.737  16.635  1.00  0.00     0.002 C 
ENDROOT
BRANCH   1   2
ATOM      2  C   UNL     1      27.786   5.401  16.176  1.00  0.00     0.021 C 
BRANCH   2   3
ATOM      3  C   UNL     1      27.632   4.064  15.497  1.00  0.00     0.116 C 
BRANCH   3   4
ATOM      4  N   UNL     1      26.631   3.284  16.164  1.00  0.00    -0.354 N 
ATOM      5  C   UNL     1      26.682   1.899  16.455  1.00  0.00     0.244 C 
ATOM      6  O   UNL     1      27.698   1.282  16.096  1.00  0.00    -0.273 OA
ATOM      7  H   UNL     1      25.749   3.800  16.478  1.00  0.00     0.163 HD
BRANCH   5   8
ATOM      8  C   UNL     1      25.518   1.250  17.185  1.00  0.00     0.191 C 
BRANCH   8   9
ATOM      9  C   UNL     1      24.805   2.232  18.023  1.00  0.00     0.151 C 
BRANCH   9  10
ATOM     10  N   UNL     1      23.390   2.096  18.159  1.00  0.00    -0.349 N 
ATOM     11  O   UNL     1      22.899   3.203  20.199  1.00  0.00    -0.269 OA
ATOM     12  C   UNL     1      22.546   2.555  19.169  1.00  0.00     0.251 C 
ATOM     13  H   UNL     1      22.906   1.564  17.365  1.00  0.00     0.163 HD
BRANCH  12  14
ATOM     14  C   UNL     1      21.105   2.295  19.096  1.00  0.00     0.040 A 
ATOM     15  C   UNL     1      20.284   2.477  20.170  1.00  0.00     0.014 A 
ATOM     16  C   UNL     1      20.592   1.838  17.880  1.00  0.00     0.021 A 
ATOM     17  C   UNL     1      18.948   2.194  20.020  1.00  0.00     0.001 A 
ATOM     18  C   UNL     1      19.232   1.554  17.741  1.00  0.00    -0.010 A 
ATOM     19  C   UNL     1      18.417   1.743  18.843  1.00  0.00     0.007 A 
BRANCH  18  20
ATOM     20  C   UNL     1      18.702   1.058  16.453  1.00  0.00     0.265 C 
BRANCH  20  21
ATOM     21  O   UNL     1      17.993  -0.112  16.576  1.00  0.00    -0.488 OA
BRANCH  21  22
ATOM     22  C   UNL     1      18.338  -1.380  16.188  1.00  0.00     0.132 A 
ATOM     23  C   UNL     1      17.437  -2.088  15.387  1.00  0.00     0.081 A 
ATOM     24  C   UNL     1      19.540  -1.941  16.579  1.00  0.00     0.047 A 
ATOM     25  C   UNL     1      17.761  -3.358  14.991  1.00  0.00     0.018 A 
ATOM     26  C   UNL     1      19.836  -3.218  16.165  1.00  0.00     0.004 A 
ATOM     27  C   UNL     1      18.947  -3.923  15.372  1.00  0.00     0.001 A 
BRANCH  23  28
ATOM     28  C   UNL     1      16.159  -1.471  14.966  1.00  0.00     0.252 C 
ATOM     29  N   UNL     1      16.253  -0.494  13.940  1.00  0.00    -0.365 N 
ATOM     30  O   UNL     1      15.124  -1.848  15.528  1.00  0.00    -0.269 OA
ATOM     31  H   UNL     1      16.391  -0.840  12.946  1.00  0.00     0.159 HD
ATOM     32  H   UNL     1      16.191   0.518  14.130  1.00  0.00     0.159 HD
ENDBRANCH  23  28
ENDBRANCH  21  22
ENDBRANCH  20  21
ENDBRANCH  18  20
ENDBRANCH  12  14
ENDBRANCH   9  10
ENDBRANCH   8   9
BRANCH   8  33
ATOM     33  N   UNL     1      24.689   0.578  16.247  1.00  0.00    -0.336 N 
ATOM     34  C   UNL     1      24.204   1.021  15.004  1.00  0.00     0.287 C 
ATOM     35  H   UNL     1      24.382  -0.435  16.494  1.00  0.00     0.164 HD
ATOM     36  O   UNL     1      24.436   2.147  14.516  1.00  0.00    -0.266 OA
BRANCH  34  37
ATOM     37  C   UNL     1      23.352   0.116  14.185  1.00  0.00     0.196 A 
ATOM     38  N   UNL     1      22.604  -0.892  14.660  1.00  0.00    -0.232 NA
ATOM     39  N   UNL     1      23.189   0.132  12.862  1.00  0.00    -0.341 N 
ATOM     40  C   UNL     1      21.966  -1.519  13.660  1.00  0.00     0.131 A 
ATOM     41  C   UNL     1      22.353  -0.848  12.511  1.00  0.00     0.104 A 
ATOM     42  H   UNL     1      23.659   0.828  12.211  1.00  0.00     0.168 HD
ENDBRANCH  34  37
ENDBRANCH   8  33
ENDBRANCH   5   8
ENDBRANCH   3   4
ENDBRANCH   2   3
ENDBRANCH   1   2
BRANCH   1  43
ATOM     43  C   UNL     1      29.366   6.955  17.433  1.00  0.00     0.000 C 
BRANCH  43  44
ATOM     44  C   UNL     1      30.491   7.847  17.062  1.00  0.00     0.000 C 
BRANCH  44  45
ATOM     45  C   UNL     1      31.186   7.399  15.780  1.00  0.00     0.000 C 
BRANCH  45  46
ATOM     46  C   UNL     1      30.872   8.373  14.648  1.00  0.00     0.000 C 
BRANCH  46  47
ATOM     47  C   UNL     1      30.016   7.734  13.605  1.00  0.00     0.000 C 
BRANCH  47  48
ATOM     48  C   UNL     1      28.557   8.045  13.631  1.00  0.00     0.000 C 
BRANCH  48  49
ATOM     49  C   UNL     1      28.079   9.037  14.574  1.00  0.00     0.001 C 
BRANCH  49  50
ATOM     50  C   UNL     1      27.097   9.197  15.497  1.00  0.00     0.009 C 
BRANCH  50  51
ATOM     51  C   UNL     1      25.756   9.765  15.918  1.00  0.00    -0.012 C 
BRANCH  51  52
ATOM     52  C   UNL     1      24.733   9.137  15.025  1.00  0.00    -0.018 C 
ATOM     53  C   UNL     1      23.318   9.508  15.363  1.00  0.00     0.033 C 
ATOM     54  C   UNL     1      24.702   9.666  13.609  1.00  0.00     0.033 C 
ATOM     55  C   UNL     1      24.789   7.668  14.717  1.00  0.00     0.033 C 
ATOM     56  C   UNL     1      22.263   9.021  14.383  1.00  0.00     0.101 C 
ATOM     57  C   UNL     1      23.700   9.113  12.669  1.00  0.00     0.101 C 
ATOM     58  C   UNL     1      23.564   7.147  13.941  1.00  0.00     0.101 C 
ATOM     59  C   UNL     1      22.355   9.616  13.026  1.00  0.00     0.051 C 
ATOM     60  C   UNL     1      22.249   7.522  14.447  1.00  0.00     0.051 C 
ATOM     61  C   UNL     1      23.596   7.628  12.509  1.00  0.00     0.051 C 
BRANCH  56  62
ATOM     62  S   UNL     1      20.665   9.563  15.001  1.00  0.00     0.270 S 
ATOM     63  O   UNL     1      19.917  10.281  13.906  1.00  0.00    -0.199 OA
ATOM     64  O   UNL     1      19.917   8.381  15.482  1.00  0.00    -0.199 OA
BRANCH  62  65
ATOM     65  O   UNL     1      20.889  10.605  16.284  1.00  0.00    -0.285 OA
ATOM     66  H   UNL     1      20.762  10.164  17.162  1.00  0.00     0.234 HD
ENDBRANCH  62  65
ENDBRANCH  56  62
BRANCH  57  67
ATOM     67  S   UNL     1      24.130   9.720  11.039  1.00  0.00     0.270 S 
ATOM     68  O   UNL     1      23.664  11.160  10.894  1.00  0.00    -0.199 OA
ATOM     69  O   UNL     1      23.390   8.959   9.974  1.00  0.00    -0.199 OA
BRANCH  67  70
ATOM     70  O   UNL     1      25.753   9.678  10.722  1.00  0.00    -0.285 OA
ATOM     71  H   UNL     1      26.011  10.489  10.207  1.00  0.00     0.234 HD
ENDBRANCH  67  70
ENDBRANCH  57  67
BRANCH  58  72
ATOM     72  S   UNL     1      23.688   5.358  13.935  1.00  0.00     0.270 S 
ATOM     73  O   UNL     1      24.750   4.937  12.964  1.00  0.00    -0.199 OA
ATOM     74  O   UNL     1      22.372   4.791  13.495  1.00  0.00    -0.199 OA
BRANCH  72  75
ATOM     75  O   UNL     1      24.139   4.818  15.450  1.00  0.00    -0.285 OA
ATOM     76  H   UNL     1      23.304   4.811  16.006  1.00  0.00     0.234 HD
ENDBRANCH  72  75
ENDBRANCH  58  72
ENDBRANCH  51  52
BRANCH  51  77
ATOM     77  C   UNL     1      25.621   9.632  17.419  1.00  0.00    -0.018 C 
ATOM     78  C   UNL     1      24.469  10.187  18.131  1.00  0.00     0.033 C 
ATOM     79  C   UNL     1      26.953   9.574  18.119  1.00  0.00     0.033 C 
ATOM     80  C   UNL     1      25.282   8.157  17.845  1.00  0.00     0.033 C 
ATOM     81  C   UNL     1      24.564  10.064  19.672  1.00  0.00     0.101 C 
ATOM     82  C   UNL     1      26.897   9.671  19.615  1.00  0.00     0.101 C 
ATOM     83  C   UNL     1      25.378   7.921  19.335  1.00  0.00     0.101 C 
ATOM     84  C   UNL     1      25.872  10.573  20.184  1.00  0.00     0.051 C 
ATOM     85  C   UNL     1      24.239   8.667  20.067  1.00  0.00     0.051 C 
ATOM     86  C   UNL     1      26.575   8.217  20.072  1.00  0.00     0.051 C 
BRANCH  81  87
ATOM     87  S   UNL     1      23.277  11.071  20.406  1.00  0.00     0.270 S 
ATOM     88  O   UNL     1      23.267  12.440  19.833  1.00  0.00    -0.199 OA
ATOM     89  O   UNL     1      21.929  10.433  20.203  1.00  0.00    -0.199 OA
BRANCH  87  90
ATOM     90  O   UNL     1      23.635  11.170  22.044  1.00  0.00    -0.285 OA
ATOM     91  H   UNL     1      23.274  11.961  22.475  1.00  0.00     0.234 HD
ENDBRANCH  87  90
ENDBRANCH  81  87
BRANCH  82  92
ATOM     92  S   UNL     1      28.491  10.090  20.244  1.00  0.00     0.270 S 
ATOM     93  O   UNL     1      29.254   8.859  20.672  1.00  0.00    -0.199 OA
ATOM     94  O   UNL     1      28.291  10.941  21.492  1.00  0.00    -0.199 OA
BRANCH  92  95
ATOM     95  O   UNL     1      29.427  10.974  19.202  1.00  0.00    -0.285 OA
ATOM     96  H   UNL     1      28.975  11.194  18.348  1.00  0.00     0.234 HD
ENDBRANCH  92  95
ENDBRANCH  82  92
BRANCH  83  97
ATOM     97  S   UNL     1      25.029   6.162  19.538  1.00  0.00     0.270 S 
ATOM     98  O   UNL     1      25.212   5.424  18.265  1.00  0.00    -0.199 OA
ATOM     99  O   UNL     1      26.056   5.650  20.518  1.00  0.00    -0.199 OA
BRANCH  97 100
ATOM    100  O   UNL     1      23.515   5.966  20.205  1.00  0.00    -0.285 OA
ATOM    101  H   UNL     1      23.539   6.342  21.112  1.00  0.00     0.234 HD
ENDBRANCH  97 100
ENDBRANCH  83  97
ENDBRANCH  51  77
BRANCH  51 102
ATOM    102  C   UNL     1      25.878  11.296  15.674  1.00  0.00    -0.018 C 
ATOM    103  C   UNL     1      24.676  12.065  15.976  1.00  0.00     0.033 C 
ATOM    104  C   UNL     1      27.071  11.870  16.442  1.00  0.00     0.033 C 
ATOM    105  C   UNL     1      26.312  11.742  14.348  1.00  0.00     0.033 C 
ATOM    106  C   UNL     1      24.831  13.598  16.007  1.00  0.00     0.101 C 
ATOM    107  C   UNL     1      27.108  13.401  16.404  1.00  0.00     0.101 C 
ATOM    108  C   UNL     1      26.381  13.269  14.206  1.00  0.00     0.101 C 
ATOM    109  C   UNL     1      25.884  14.026  16.956  1.00  0.00     0.051 C 
ATOM    110  C   UNL     1      25.207  14.042  14.615  1.00  0.00     0.051 C 
ATOM    111  C   UNL     1      27.508  13.835  15.042  1.00  0.00     0.051 C 
BRANCH 106 112
ATOM    112  S   UNL     1      23.212  14.214  16.441  1.00  0.00     0.270 S 
ATOM    113  O   UNL     1      22.186  13.150  16.325  1.00  0.00    -0.199 OA
ATOM    114  O   UNL     1      22.940  15.377  15.518  1.00  0.00    -0.199 OA
BRANCH 112 115
ATOM    115  O   UNL     1      23.328  14.850  17.998  1.00  0.00    -0.285 OA
ATOM    116  H   UNL     1      24.227  15.203  18.188  1.00  0.00     0.234 HD
ENDBRANCH 112 115
ENDBRANCH 106 112
BRANCH 107 117
ATOM    117  S   UNL     1      28.449  13.984  17.458  1.00  0.00     0.270 S 
ATOM    118  O   UNL     1      29.637  13.089  17.073  1.00  0.00    -0.199 OA
ATOM    119  O   UNL     1      28.785  15.370  17.080  1.00  0.00    -0.199 OA
BRANCH 117 120
ATOM    120  O   UNL     1      28.127  13.731  19.064  1.00  0.00    -0.285 OA
ATOM    121  H   UNL     1      27.562  14.447  19.413  1.00  0.00     0.234 HD
ENDBRANCH 117 120
ENDBRANCH 107 117
BRANCH 108 122
ATOM    122  S   UNL     1      26.774  13.617  12.510  1.00  0.00     0.270 S 
ATOM    123  O   UNL     1      26.242  14.947  12.065  1.00  0.00    -0.199 OA
ATOM    124  O   UNL     1      28.284  13.615  12.339  1.00  0.00    -0.199 OA
BRANCH 122 125
ATOM    125  O   UNL     1      26.136  12.438  11.517  1.00  0.00    -0.285 OA
ATOM    126  H   UNL     1      25.756  11.727  12.097  1.00  0.00     0.234 HD
ENDBRANCH 122 125
ENDBRANCH 108 122
ENDBRANCH  51 102
ENDBRANCH  50  51
ENDBRANCH  49  50
ENDBRANCH  48  49
ENDBRANCH  47  48
ENDBRANCH  46  47
ENDBRANCH  45  46
ENDBRANCH  44  45
ENDBRANCH  43  44
ENDBRANCH   1  43
TORSDOF 43
ENDMDL
