MODEL 1
REMARK VINA RESULT:   -11.289      0.000      0.000
REMARK INTER + INTRA:         -18.777
REMARK INTER:                 -17.229
REMARK INTRA:                  -1.548
REMARK UNBOUND:                -1.548
REMARK SMILES Cc1cc(C(=O)NCCNC(=O)c2cccc(COc3ccccc3C(N)=O)c2)[nH]n1
REMARK SMILES IDX 13 1 14 2 15 3 16 4 17 5 29 6 11 7 12 8 10 9 9 11 8 12 7 13
REMARK SMILES IDX 5 14 6 16 4 17 3 18 30 19 2 20 31 21 1 23 18 24 19 25 20 26
REMARK SMILES IDX 25 27 21 28 24 29 22 30 23 31 26 32 27 33 28 34
REMARK H PARENT 10 10 7 15 30 22 27 35 27 36
REMARK Flexibility Score: inf
ROOT
ATOM      1  C   UNL     1      20.546  -1.954  17.463  1.00  0.00     0.040 A 
ATOM      2  C   UNL     1      21.768  -2.397  17.021  1.00  0.00     0.014 A 
ATOM      3  C   UNL     1      22.780  -1.458  16.873  1.00  0.00     0.001 A 
ATOM      4  C   UNL     1      22.591  -0.126  17.150  1.00  0.00     0.007 A 
ATOM      5  C   UNL     1      21.387   0.330  17.589  1.00  0.00    -0.010 A 
ATOM      6  C   UNL     1      20.377  -0.601  17.739  1.00  0.00     0.021 A 
ENDROOT
BRANCH   1   7
ATOM      7  C   UNL     1      19.409  -2.827  17.662  1.00  0.00     0.251 C 
ATOM      8  O   UNL     1      18.890  -2.911  18.796  1.00  0.00    -0.269 OA
ATOM      9  N   UNL     1      18.879  -3.583  16.598  1.00  0.00    -0.350 N 
ATOM     10  H   UNL     1      19.310  -3.509  15.662  1.00  0.00     0.163 HD
BRANCH   9  11
ATOM     11  C   UNL     1      17.749  -4.477  16.720  1.00  0.00     0.137 C 
BRANCH  11  12
ATOM     12  C   UNL     1      16.630  -3.941  15.852  1.00  0.00     0.137 C 
BRANCH  12  13
ATOM     13  N   UNL     1      17.093  -2.997  14.858  1.00  0.00    -0.349 N 
ATOM     14  C   UNL     1      16.432  -1.772  14.658  1.00  0.00     0.269 C 
ATOM     15  H   UNL     1      17.931  -3.230  14.282  1.00  0.00     0.163 HD
ATOM     16  O   UNL     1      15.428  -1.494  15.352  1.00  0.00    -0.268 OA
BRANCH  14  17
ATOM     17  C   UNL     1      16.870  -0.790  13.659  1.00  0.00     0.123 A 
ATOM     18  C   UNL     1      17.067   0.572  13.854  1.00  0.00     0.058 A 
ATOM     19  N   UNL     1      17.167  -1.005  12.366  1.00  0.00    -0.273 N 
ATOM     20  C   UNL     1      17.479   1.142  12.668  1.00  0.00     0.060 A 
ATOM     21  N   UNL     1      17.523   0.129  11.787  1.00  0.00    -0.180 NA
ATOM     22  H   UNL     1      17.115  -1.952  11.900  1.00  0.00     0.190 HD
ATOM     23  C   UNL     1      17.810   2.573  12.393  1.00  0.00     0.069 C 
ENDBRANCH  14  17
ENDBRANCH  12  13
ENDBRANCH  11  12
ENDBRANCH   9  11
ENDBRANCH   1   7
BRANCH   5  24
ATOM     24  C   UNL     1      21.110   1.742  17.903  1.00  0.00     0.265 C 
BRANCH  24  25
ATOM     25  O   UNL     1      19.933   1.863  18.662  1.00  0.00    -0.488 OA
BRANCH  25  26
ATOM     26  C   UNL     1      20.072   2.330  19.985  1.00  0.00     0.132 A 
ATOM     27  C   UNL     1      18.945   2.589  20.728  1.00  0.00     0.081 A 
ATOM     28  C   UNL     1      21.333   2.523  20.523  1.00  0.00     0.047 A 
ATOM     29  C   UNL     1      19.131   3.052  22.035  1.00  0.00     0.018 A 
ATOM     30  C   UNL     1      21.477   2.979  21.814  1.00  0.00     0.004 A 
ATOM     31  C   UNL     1      20.376   3.248  22.583  1.00  0.00     0.001 A 
BRANCH  27  32
ATOM     32  C   UNL     1      17.585   2.403  20.225  1.00  0.00     0.252 C 
ATOM     33  N   UNL     1      17.314   2.351  18.839  1.00  0.00    -0.365 N 
ATOM     34  O   UNL     1      16.609   2.281  21.001  1.00  0.00    -0.269 OA
ATOM     35  H   UNL     1      16.977   3.182  18.279  1.00  0.00     0.159 HD
ATOM     36  H   UNL     1      17.469   1.409  18.374  1.00  0.00     0.159 HD
ENDBRANCH  27  32
ENDBRANCH  25  26
ENDBRANCH  24  25
ENDBRANCH   5  24
TORSDOF 9
ENDMDL
MODEL 2
REMARK VINA RESULT:   -11.039      2.669      3.712
REMARK INTER + INTRA:         -18.396
REMARK INTER:                 -17.198
REMARK INTRA:                  -1.198
REMARK UNBOUND:                -1.548
REMARK SMILES Cc1cc(C(=O)NCCNC(=O)c2cccc(COc3ccccc3C(N)=O)c2)[nH]n1
REMARK SMILES IDX 13 1 14 2 15 3 16 4 17 5 29 6 11 7 12 8 10 9 9 11 8 12 7 13
REMARK SMILES IDX 5 14 6 16 4 17 3 18 30 19 2 20 31 21 1 23 18 24 19 25 20 26
REMARK SMILES IDX 25 27 21 28 24 29 22 30 23 31 26 32 27 33 28 34
REMARK H PARENT 10 10 7 15 30 22 27 35 27 36
REMARK Flexibility Score: inf
ROOT
ATOM      1  C   UNL     1      20.106  -2.046  17.494  1.00  0.00     0.040 A 
ATOM      2  C   UNL     1      21.326  -2.529  17.093  1.00  0.00     0.014 A 
ATOM      3  C   UNL     1      22.364  -1.618  16.946  1.00  0.00     0.001 A 
ATOM      4  C   UNL     1      22.201  -0.276  17.188  1.00  0.00     0.007 A 
ATOM      5  C   UNL     1      20.999   0.220  17.586  1.00  0.00    -0.010 A 
ATOM      6  C   UNL     1      19.964  -0.682  17.734  1.00  0.00     0.021 A 
ENDROOT
BRANCH   1   7
ATOM      7  C   UNL     1      18.943  -2.886  17.686  1.00  0.00     0.251 C 
ATOM      8  O   UNL     1      18.597  -3.201  18.846  1.00  0.00    -0.269 OA
ATOM      9  N   UNL     1      18.195  -3.353  16.587  1.00  0.00    -0.350 N 
ATOM     10  H   UNL     1      18.484  -3.089  15.632  1.00  0.00     0.163 HD
BRANCH   9  11
ATOM     11  C   UNL     1      17.026  -4.197  16.699  1.00  0.00     0.137 C 
BRANCH  11  12
ATOM     12  C   UNL     1      16.018  -3.743  15.664  1.00  0.00     0.137 C 
BRANCH  12  13
ATOM     13  N   UNL     1      16.209  -4.379  14.379  1.00  0.00    -0.349 N 
ATOM     14  C   UNL     1      15.424  -5.480  13.992  1.00  0.00     0.269 C 
ATOM     15  H   UNL     1      16.939  -4.014  13.730  1.00  0.00     0.163 HD
ATOM     16  O   UNL     1      14.547  -5.915  14.772  1.00  0.00    -0.268 OA
BRANCH  14  17
ATOM     17  C   UNL     1      15.588  -6.153  12.699  1.00  0.00     0.123 A 
ATOM     18  C   UNL     1      16.505  -7.149  12.382  1.00  0.00     0.058 A 
ATOM     19  N   UNL     1      14.891  -5.948  11.568  1.00  0.00    -0.273 N 
ATOM     20  C   UNL     1      16.335  -7.516  11.064  1.00  0.00     0.060 A 
ATOM     21  N   UNL     1      15.331  -6.748  10.611  1.00  0.00    -0.180 NA
ATOM     22  H   UNL     1      14.109  -5.242  11.478  1.00  0.00     0.190 HD
ATOM     23  C   UNL     1      17.089  -8.543  10.283  1.00  0.00     0.069 C 
ENDBRANCH  14  17
ENDBRANCH  12  13
ENDBRANCH  11  12
ENDBRANCH   9  11
ENDBRANCH   1   7
BRANCH   5  24
ATOM     24  C   UNL     1      20.750   1.645  17.860  1.00  0.00     0.265 C 
BRANCH  24  25
ATOM     25  O   UNL     1      19.645   1.804  18.713  1.00  0.00    -0.488 OA
BRANCH  25  26
ATOM     26  C   UNL     1      19.901   2.322  20.000  1.00  0.00     0.132 A 
ATOM     27  C   UNL     1      18.843   2.632  20.821  1.00  0.00     0.081 A 
ATOM     28  C   UNL     1      21.205   2.516  20.422  1.00  0.00     0.047 A 
ATOM     29  C   UNL     1      19.145   3.145  22.088  1.00  0.00     0.018 A 
ATOM     30  C   UNL     1      21.463   3.022  21.676  1.00  0.00     0.004 A 
ATOM     31  C   UNL     1      20.434   3.343  22.522  1.00  0.00     0.001 A 
BRANCH  27  32
ATOM     32  C   UNL     1      17.444   2.449  20.442  1.00  0.00     0.252 C 
ATOM     33  N   UNL     1      17.016   2.617  19.106  1.00  0.00    -0.365 N 
ATOM     34  O   UNL     1      16.571   2.136  21.284  1.00  0.00    -0.269 OA
ATOM     35  H   UNL     1      16.581   3.509  18.740  1.00  0.00     0.159 HD
ATOM     36  H   UNL     1      17.157   1.780  18.468  1.00  0.00     0.159 HD
ENDBRANCH  27  32
ENDBRANCH  25  26
ENDBRANCH  24  25
ENDBRANCH   5  24
TORSDOF 9
ENDMDL
MODEL 3
REMARK VINA RESULT:   -10.507      1.758      4.435
REMARK INTER + INTRA:         -17.584
REMARK INTER:                 -16.235
REMARK INTRA:                  -1.349
REMARK UNBOUND:                -1.548
REMARK SMILES Cc1cc(C(=O)NCCNC(=O)c2cccc(COc3ccccc3C(N)=O)c2)[nH]n1
REMARK SMILES IDX 13 1 14 2 15 3 16 4 17 5 29 6 11 7 12 8 10 9 9 11 8 12 7 13
REMARK SMILES IDX 5 14 6 16 4 17 3 18 30 19 2 20 31 21 1 23 18 24 19 25 20 26
REMARK SMILES IDX 25 27 21 28 24 29 22 30 23 31 26 32 27 33 28 34
REMARK H PARENT 10 10 7 15 30 22 27 35 27 36
REMARK Flexibility Score: inf
ROOT
ATOM      1  C   UNL     1      16.730  -0.671  14.235  1.00  0.00     0.040 A 
ATOM      2  C   UNL     1      16.835   0.428  13.420  1.00  0.00     0.014 A 
ATOM      3  C   UNL     1      17.521   1.531  13.910  1.00  0.00     0.001 A 
ATOM      4  C   UNL     1      18.083   1.549  15.163  1.00  0.00     0.007 A 
ATOM      5  C   UNL     1      17.989   0.469  15.984  1.00  0.00    -0.010 A 
ATOM      6  C   UNL     1      17.308  -0.632  15.501  1.00  0.00     0.021 A 
ENDROOT
BRANCH   1   7
ATOM      7  C   UNL     1      16.044  -1.885  13.848  1.00  0.00     0.251 C 
ATOM      8  O   UNL     1      14.795  -1.920  13.871  1.00  0.00    -0.269 OA
ATOM      9  N   UNL     1      16.764  -3.027  13.445  1.00  0.00    -0.350 N 
ATOM     10  H   UNL     1      17.796  -2.993  13.426  1.00  0.00     0.163 HD
BRANCH   9  11
ATOM     11  C   UNL     1      16.150  -4.276  13.047  1.00  0.00     0.137 C 
BRANCH  11  12
ATOM     12  C   UNL     1      16.943  -5.407  13.668  1.00  0.00     0.137 C 
BRANCH  12  13
ATOM     13  N   UNL     1      18.205  -4.969  14.223  1.00  0.00    -0.349 N 
ATOM     14  C   UNL     1      18.287  -4.478  15.538  1.00  0.00     0.269 C 
ATOM     15  H   UNL     1      19.067  -5.021  13.638  1.00  0.00     0.163 HD
ATOM     16  O   UNL     1      17.251  -4.419  16.238  1.00  0.00    -0.268 OA
BRANCH  14  17
ATOM     17  C   UNL     1      19.547  -4.023  16.136  1.00  0.00     0.123 A 
ATOM     18  C   UNL     1      20.067  -2.734  16.116  1.00  0.00     0.058 A 
ATOM     19  N   UNL     1      20.447  -4.752  16.818  1.00  0.00    -0.273 N 
ATOM     20  C   UNL     1      21.270  -2.722  16.790  1.00  0.00     0.060 A 
ATOM     21  N   UNL     1      21.456  -3.988  17.201  1.00  0.00    -0.180 NA
ATOM     22  H   UNL     1      20.343  -5.786  17.010  1.00  0.00     0.190 HD
ATOM     23  C   UNL     1      22.189  -1.568  17.027  1.00  0.00     0.069 C 
ENDBRANCH  14  17
ENDBRANCH  12  13
ENDBRANCH  11  12
ENDBRANCH   9  11
ENDBRANCH   1   7
BRANCH   5  24
ATOM     24  C   UNL     1      18.563   0.416  17.339  1.00  0.00     0.265 C 
BRANCH  24  25
ATOM     25  O   UNL     1      18.312   1.611  18.034  1.00  0.00    -0.488 OA
BRANCH  25  26
ATOM     26  C   UNL     1      19.298   2.038  18.946  1.00  0.00     0.132 A 
ATOM     27  C   UNL     1      18.912   2.570  20.154  1.00  0.00     0.081 A 
ATOM     28  C   UNL     1      20.639   1.922  18.622  1.00  0.00     0.047 A 
ATOM     29  C   UNL     1      19.925   2.981  21.027  1.00  0.00     0.018 A 
ATOM     30  C   UNL     1      21.608   2.337  19.507  1.00  0.00     0.004 A 
ATOM     31  C   UNL     1      21.260   2.872  20.719  1.00  0.00     0.001 A 
BRANCH  27  32
ATOM     32  C   UNL     1      17.516   2.718  20.562  1.00  0.00     0.252 C 
ATOM     33  N   UNL     1      17.032   2.132  21.753  1.00  0.00    -0.365 N 
ATOM     34  O   UNL     1      16.697   3.369  19.875  1.00  0.00    -0.269 OA
ATOM     35  H   UNL     1      16.524   1.205  21.783  1.00  0.00     0.159 HD
ATOM     36  H   UNL     1      17.209   2.683  22.644  1.00  0.00     0.159 HD
ENDBRANCH  27  32
ENDBRANCH  25  26
ENDBRANCH  24  25
ENDBRANCH   5  24
TORSDOF 9
ENDMDL
MODEL 4
REMARK VINA RESULT:   -10.354      2.093      2.759
REMARK INTER + INTRA:         -17.350
REMARK INTER:                 -15.310
REMARK INTRA:                  -2.040
REMARK UNBOUND:                -1.548
REMARK SMILES Cc1cc(C(=O)NCCNC(=O)c2cccc(COc3ccccc3C(N)=O)c2)[nH]n1
REMARK SMILES IDX 13 1 14 2 15 3 16 4 17 5 29 6 11 7 12 8 10 9 9 11 8 12 7 13
REMARK SMILES IDX 5 14 6 16 4 17 3 18 30 19 2 20 31 21 1 23 18 24 19 25 20 26
REMARK SMILES IDX 25 27 21 28 24 29 22 30 23 31 26 32 27 33 28 34
REMARK H PARENT 10 10 7 15 30 22 27 35 27 36
REMARK Flexibility Score: inf
ROOT
ATOM      1  C   UNL     1      21.355  -2.190  15.799  1.00  0.00     0.040 A 
ATOM      2  C   UNL     1      21.897  -1.923  14.567  1.00  0.00     0.014 A 
ATOM      3  C   UNL     1      22.777  -0.853  14.467  1.00  0.00     0.001 A 
ATOM      4  C   UNL     1      23.109  -0.073  15.547  1.00  0.00     0.007 A 
ATOM      5  C   UNL     1      22.581  -0.323  16.776  1.00  0.00    -0.010 A 
ATOM      6  C   UNL     1      21.706  -1.387  16.880  1.00  0.00     0.021 A 
ENDROOT
BRANCH   1   7
ATOM      7  C   UNL     1      20.428  -3.274  16.042  1.00  0.00     0.251 C 
ATOM      8  O   UNL     1      20.077  -3.532  17.213  1.00  0.00    -0.269 OA
ATOM      9  N   UNL     1      19.916  -4.043  14.977  1.00  0.00    -0.350 N 
ATOM     10  H   UNL     1      20.208  -3.825  14.011  1.00  0.00     0.163 HD
BRANCH   9  11
ATOM     11  C   UNL     1      18.990  -5.142  15.141  1.00  0.00     0.137 C 
BRANCH  11  12
ATOM     12  C   UNL     1      17.607  -4.650  14.769  1.00  0.00     0.137 C 
BRANCH  12  13
ATOM     13  N   UNL     1      17.589  -3.252  14.398  1.00  0.00    -0.349 N 
ATOM     14  C   UNL     1      17.158  -2.268  15.305  1.00  0.00     0.269 C 
ATOM     15  H   UNL     1      17.903  -2.971  13.444  1.00  0.00     0.163 HD
ATOM     16  O   UNL     1      16.784  -2.608  16.451  1.00  0.00    -0.268 OA
BRANCH  14  17
ATOM     17  C   UNL     1      17.124  -0.840  14.967  1.00  0.00     0.123 A 
ATOM     18  C   UNL     1      18.129  -0.099  14.355  1.00  0.00     0.058 A 
ATOM     19  N   UNL     1      16.124   0.034  15.177  1.00  0.00    -0.273 N 
ATOM     20  C   UNL     1      17.704   1.205  14.213  1.00  0.00     0.060 A 
ATOM     21  N   UNL     1      16.467   1.232  14.735  1.00  0.00    -0.180 NA
ATOM     22  H   UNL     1      15.206  -0.221  15.633  1.00  0.00     0.190 HD
ATOM     23  C   UNL     1      18.441   2.360  13.614  1.00  0.00     0.069 C 
ENDBRANCH  14  17
ENDBRANCH  12  13
ENDBRANCH  11  12
ENDBRANCH   9  11
ENDBRANCH   1   7
BRANCH   5  24
ATOM     24  C   UNL     1      22.888   0.472  17.977  1.00  0.00     0.265 C 
BRANCH  24  25
ATOM     25  O   UNL     1      22.318   1.753  17.887  1.00  0.00    -0.488 OA
BRANCH  25  26
ATOM     26  C   UNL     1      20.980   1.887  18.312  1.00  0.00     0.132 A 
ATOM     27  C   UNL     1      20.722   2.335  19.585  1.00  0.00     0.081 A 
ATOM     28  C   UNL     1      19.945   1.569  17.450  1.00  0.00     0.047 A 
ATOM     29  C   UNL     1      19.379   2.452  19.963  1.00  0.00     0.018 A 
ATOM     30  C   UNL     1      18.636   1.697  17.857  1.00  0.00     0.004 A 
ATOM     31  C   UNL     1      18.340   2.140  19.119  1.00  0.00     0.001 A 
BRANCH  27  32
ATOM     32  C   UNL     1      21.765   2.693  20.544  1.00  0.00     0.252 C 
ATOM     33  N   UNL     1      22.915   3.411  20.146  1.00  0.00    -0.365 N 
ATOM     34  O   UNL     1      21.681   2.380  21.754  1.00  0.00    -0.269 OA
ATOM     35  H   UNL     1      23.841   2.952  19.919  1.00  0.00     0.159 HD
ATOM     36  H   UNL     1      22.802   4.465  20.083  1.00  0.00     0.159 HD
ENDBRANCH  27  32
ENDBRANCH  25  26
ENDBRANCH  24  25
ENDBRANCH   5  24
TORSDOF 9
ENDMDL
MODEL 5
REMARK VINA RESULT:   -10.288      3.133      4.522
REMARK INTER + INTRA:         -17.249
REMARK INTER:                 -15.880
REMARK INTRA:                  -1.368
REMARK UNBOUND:                -1.548
REMARK SMILES Cc1cc(C(=O)NCCNC(=O)c2cccc(COc3ccccc3C(N)=O)c2)[nH]n1
REMARK SMILES IDX 13 1 14 2 15 3 16 4 17 5 29 6 11 7 12 8 10 9 9 11 8 12 7 13
REMARK SMILES IDX 5 14 6 16 4 17 3 18 30 19 2 20 31 21 1 23 18 24 19 25 20 26
REMARK SMILES IDX 25 27 21 28 24 29 22 30 23 31 26 32 27 33 28 34
REMARK H PARENT 10 10 7 15 30 22 27 35 27 36
REMARK Flexibility Score: inf
ROOT
ATOM      1  C   UNL     1      17.441  -1.193  15.822  1.00  0.00     0.040 A 
ATOM      2  C   UNL     1      16.717  -0.275  15.103  1.00  0.00     0.014 A 
ATOM      3  C   UNL     1      16.987   1.070  15.317  1.00  0.00     0.001 A 
ATOM      4  C   UNL     1      17.939   1.494  16.212  1.00  0.00     0.007 A 
ATOM      5  C   UNL     1      18.665   0.598  16.933  1.00  0.00    -0.010 A 
ATOM      6  C   UNL     1      18.401  -0.741  16.722  1.00  0.00     0.021 A 
ENDROOT
BRANCH   1   7
ATOM      7  C   UNL     1      17.261  -2.623  15.693  1.00  0.00     0.251 C 
ATOM      8  O   UNL     1      17.816  -3.230  14.752  1.00  0.00    -0.269 OA
ATOM      9  N   UNL     1      16.471  -3.341  16.613  1.00  0.00    -0.350 N 
ATOM     10  H   UNL     1      16.016  -2.835  17.390  1.00  0.00     0.163 HD
BRANCH   9  11
ATOM     11  C   UNL     1      16.243  -4.768  16.549  1.00  0.00     0.137 C 
BRANCH  11  12
ATOM     12  C   UNL     1      15.009  -5.008  15.705  1.00  0.00     0.137 C 
BRANCH  12  13
ATOM     13  N   UNL     1      15.259  -5.886  14.582  1.00  0.00    -0.349 N 
ATOM     14  C   UNL     1      15.270  -5.392  13.266  1.00  0.00     0.269 C 
ATOM     15  H   UNL     1      15.433  -6.900  14.754  1.00  0.00     0.163 HD
ATOM     16  O   UNL     1      15.062  -4.174  13.063  1.00  0.00    -0.268 OA
BRANCH  14  17
ATOM     17  C   UNL     1      15.518  -6.249  12.101  1.00  0.00     0.123 A 
ATOM     18  C   UNL     1      16.300  -7.398  12.056  1.00  0.00     0.058 A 
ATOM     19  N   UNL     1      15.044  -6.101  10.852  1.00  0.00    -0.273 N 
ATOM     20  C   UNL     1      16.275  -7.911  10.777  1.00  0.00     0.060 A 
ATOM     21  N   UNL     1      15.489  -7.076  10.078  1.00  0.00    -0.180 NA
ATOM     22  H   UNL     1      14.409  -5.311  10.553  1.00  0.00     0.190 HD
ATOM     23  C   UNL     1      16.964  -9.130  10.253  1.00  0.00     0.069 C 
ENDBRANCH  14  17
ENDBRANCH  12  13
ENDBRANCH  11  12
ENDBRANCH   9  11
ENDBRANCH   1   7
BRANCH   5  24
ATOM     24  C   UNL     1      19.699   0.978  17.911  1.00  0.00     0.265 C 
BRANCH  24  25
ATOM     25  O   UNL     1      19.418   2.236  18.469  1.00  0.00    -0.488 OA
BRANCH  25  26
ATOM     26  C   UNL     1      19.877   2.468  19.783  1.00  0.00     0.132 A 
ATOM     27  C   UNL     1      18.962   2.625  20.796  1.00  0.00     0.081 A 
ATOM     28  C   UNL     1      21.235   2.537  20.039  1.00  0.00     0.047 A 
ATOM     29  C   UNL     1      19.464   2.855  22.082  1.00  0.00     0.018 A 
ATOM     30  C   UNL     1      21.692   2.764  21.318  1.00  0.00     0.004 A 
ATOM     31  C   UNL     1      20.809   2.925  22.353  1.00  0.00     0.001 A 
BRANCH  27  32
ATOM     32  C   UNL     1      17.515   2.560  20.597  1.00  0.00     0.252 C 
ATOM     33  N   UNL     1      16.914   3.039  19.411  1.00  0.00    -0.365 N 
ATOM     34  O   UNL     1      16.754   2.077  21.467  1.00  0.00    -0.269 OA
ATOM     35  H   UNL     1      16.479   3.998  19.324  1.00  0.00     0.159 HD
ATOM     36  H   UNL     1      16.921   2.368  18.588  1.00  0.00     0.159 HD
ENDBRANCH  27  32
ENDBRANCH  25  26
ENDBRANCH  24  25
ENDBRANCH   5  24
TORSDOF 9
ENDMDL
MODEL 6
REMARK VINA RESULT:   -10.243      2.766      6.740
REMARK INTER + INTRA:         -17.181
REMARK INTER:                 -14.724
REMARK INTRA:                  -2.457
REMARK UNBOUND:                -1.548
REMARK SMILES Cc1cc(C(=O)NCCNC(=O)c2cccc(COc3ccccc3C(N)=O)c2)[nH]n1
REMARK SMILES IDX 13 1 14 2 15 3 16 4 17 5 29 6 11 7 12 8 10 9 9 11 8 12 7 13
REMARK SMILES IDX 5 14 6 16 4 17 3 18 30 19 2 20 31 21 1 23 18 24 19 25 20 26
REMARK SMILES IDX 25 27 21 28 24 29 22 30 23 31 26 32 27 33 28 34
REMARK H PARENT 10 10 7 15 30 22 27 35 27 36
REMARK Flexibility Score: inf
ROOT
ATOM      1  C   UNL     1      21.033   2.267  19.298  1.00  0.00     0.040 A 
ATOM      2  C   UNL     1      20.577   2.713  20.513  1.00  0.00     0.014 A 
ATOM      3  C   UNL     1      19.204   2.758  20.711  1.00  0.00     0.001 A 
ATOM      4  C   UNL     1      18.310   2.376  19.740  1.00  0.00     0.007 A 
ATOM      5  C   UNL     1      18.744   1.931  18.531  1.00  0.00    -0.010 A 
ATOM      6  C   UNL     1      20.109   1.884  18.330  1.00  0.00     0.021 A 
ENDROOT
BRANCH   1   7
ATOM      7  C   UNL     1      22.437   2.168  18.963  1.00  0.00     0.251 C 
ATOM      8  O   UNL     1      23.255   2.942  19.506  1.00  0.00    -0.269 OA
ATOM      9  N   UNL     1      22.896   1.214  18.033  1.00  0.00    -0.350 N 
ATOM     10  H   UNL     1      22.217   0.576  17.588  1.00  0.00     0.163 HD
BRANCH   9  11
ATOM     11  C   UNL     1      24.281   1.057  17.646  1.00  0.00     0.137 C 
BRANCH  11  12
ATOM     12  C   UNL     1      24.494  -0.385  17.236  1.00  0.00     0.137 C 
BRANCH  12  13
ATOM     13  N   UNL     1      23.275  -1.163  17.267  1.00  0.00    -0.349 N 
ATOM     14  C   UNL     1      22.598  -1.495  16.080  1.00  0.00     0.269 C 
ATOM     15  H   UNL     1      22.893  -1.482  18.184  1.00  0.00     0.163 HD
ATOM     16  O   UNL     1      23.058  -1.112  14.981  1.00  0.00    -0.268 OA
BRANCH  14  17
ATOM     17  C   UNL     1      21.358  -2.281  16.069  1.00  0.00     0.123 A 
ATOM     18  C   UNL     1      20.672  -2.780  17.171  1.00  0.00     0.058 A 
ATOM     19  N   UNL     1      20.640  -2.673  15.003  1.00  0.00    -0.273 N 
ATOM     20  C   UNL     1      19.555  -3.462  16.735  1.00  0.00     0.060 A 
ATOM     21  N   UNL     1      19.584  -3.366  15.396  1.00  0.00    -0.180 NA
ATOM     22  H   UNL     1      20.900  -2.450  14.003  1.00  0.00     0.190 HD
ATOM     23  C   UNL     1      18.522  -4.166  17.554  1.00  0.00     0.069 C 
ENDBRANCH  14  17
ENDBRANCH  12  13
ENDBRANCH  11  12
ENDBRANCH   9  11
ENDBRANCH   1   7
BRANCH   5  24
ATOM     24  C   UNL     1      17.845   1.508  17.443  1.00  0.00     0.265 C 
BRANCH  24  25
ATOM     25  O   UNL     1      18.582   1.111  16.314  1.00  0.00    -0.488 OA
BRANCH  25  26
ATOM     26  C   UNL     1      18.119   1.559  15.060  1.00  0.00     0.132 A 
ATOM     27  C   UNL     1      18.953   1.486  13.970  1.00  0.00     0.081 A 
ATOM     28  C   UNL     1      16.837   2.066  14.936  1.00  0.00     0.047 A 
ATOM     29  C   UNL     1      18.452   1.944  12.747  1.00  0.00     0.018 A 
ATOM     30  C   UNL     1      16.377   2.507  13.715  1.00  0.00     0.004 A 
ATOM     31  C   UNL     1      17.182   2.450  12.608  1.00  0.00     0.001 A 
BRANCH  27  32
ATOM     32  C   UNL     1      20.315   0.958  14.029  1.00  0.00     0.252 C 
ATOM     33  N   UNL     1      21.307   1.568  14.829  1.00  0.00    -0.365 N 
ATOM     34  O   UNL     1      20.655  -0.055  13.375  1.00  0.00    -0.269 OA
ATOM     35  H   UNL     1      22.019   2.255  14.454  1.00  0.00     0.159 HD
ATOM     36  H   UNL     1      21.303   1.296  15.856  1.00  0.00     0.159 HD
ENDBRANCH  27  32
ENDBRANCH  25  26
ENDBRANCH  24  25
ENDBRANCH   5  24
TORSDOF 9
ENDMDL
MODEL 7
REMARK VINA RESULT:   -10.219      1.919      2.466
REMARK INTER + INTRA:         -17.144
REMARK INTER:                 -15.702
REMARK INTRA:                  -1.442
REMARK UNBOUND:                -1.548
REMARK SMILES Cc1cc(C(=O)NCCNC(=O)c2cccc(COc3ccccc3C(N)=O)c2)[nH]n1
REMARK SMILES IDX 13 1 14 2 15 3 16 4 17 5 29 6 11 7 12 8 10 9 9 11 8 12 7 13
REMARK SMILES IDX 5 14 6 16 4 17 3 18 30 19 2 20 31 21 1 23 18 24 19 25 20 26
REMARK SMILES IDX 25 27 21 28 24 29 22 30 23 31 26 32 27 33 28 34
REMARK H PARENT 10 10 7 15 30 22 27 35 27 36
REMARK Flexibility Score: inf
ROOT
ATOM      1  C   UNL     1      20.803  -2.240  16.839  1.00  0.00     0.040 A 
ATOM      2  C   UNL     1      22.174  -2.241  16.873  1.00  0.00     0.014 A 
ATOM      3  C   UNL     1      22.812  -1.064  17.241  1.00  0.00     0.001 A 
ATOM      4  C   UNL     1      22.118   0.077  17.562  1.00  0.00     0.007 A 
ATOM      5  C   UNL     1      20.759   0.096  17.534  1.00  0.00    -0.010 A 
ATOM      6  C   UNL     1      20.120  -1.073  17.169  1.00  0.00     0.021 A 
ENDROOT
BRANCH   1   7
ATOM      7  C   UNL     1      20.015  -3.398  16.475  1.00  0.00     0.251 C 
ATOM      8  O   UNL     1      20.584  -4.400  15.990  1.00  0.00    -0.269 OA
ATOM      9  N   UNL     1      18.618  -3.413  16.659  1.00  0.00    -0.350 N 
ATOM     10  H   UNL     1      18.153  -2.584  17.062  1.00  0.00     0.163 HD
BRANCH   9  11
ATOM     11  C   UNL     1      17.765  -4.531  16.318  1.00  0.00     0.137 C 
BRANCH  11  12
ATOM     12  C   UNL     1      17.040  -4.192  15.033  1.00  0.00     0.137 C 
BRANCH  12  13
ATOM     13  N   UNL     1      17.245  -2.821  14.617  1.00  0.00    -0.349 N 
ATOM     14  C   UNL     1      16.359  -1.804  15.012  1.00  0.00     0.269 C 
ATOM     15  H   UNL     1      18.064  -2.586  14.015  1.00  0.00     0.163 HD
ATOM     16  O   UNL     1      15.377  -2.089  15.735  1.00  0.00    -0.268 OA
BRANCH  14  17
ATOM     17  C   UNL     1      16.532  -0.403  14.610  1.00  0.00     0.123 A 
ATOM     18  C   UNL     1      17.106   0.067  13.434  1.00  0.00     0.058 A 
ATOM     19  N   UNL     1      16.174   0.700  15.289  1.00  0.00    -0.273 N 
ATOM     20  C   UNL     1      17.077   1.445  13.437  1.00  0.00     0.060 A 
ATOM     21  N   UNL     1      16.495   1.782  14.600  1.00  0.00    -0.180 NA
ATOM     22  H   UNL     1      15.705   0.682  16.236  1.00  0.00     0.190 HD
ATOM     23  C   UNL     1      17.579   2.386  12.390  1.00  0.00     0.069 C 
ENDBRANCH  14  17
ENDBRANCH  12  13
ENDBRANCH  11  12
ENDBRANCH   9  11
ENDBRANCH   1   7
BRANCH   5  24
ATOM     24  C   UNL     1      19.948   1.281  17.863  1.00  0.00     0.265 C 
BRANCH  24  25
ATOM     25  O   UNL     1      20.729   2.256  18.506  1.00  0.00    -0.488 OA
BRANCH  25  26
ATOM     26  C   UNL     1      20.432   2.522  19.859  1.00  0.00     0.132 A 
ATOM     27  C   UNL     1      21.412   3.040  20.672  1.00  0.00     0.081 A 
ATOM     28  C   UNL     1      19.167   2.260  20.354  1.00  0.00     0.047 A 
ATOM     29  C   UNL     1      21.072   3.287  22.007  1.00  0.00     0.018 A 
ATOM     30  C   UNL     1      18.869   2.516  21.674  1.00  0.00     0.004 A 
ATOM     31  C   UNL     1      19.820   3.032  22.514  1.00  0.00     0.001 A 
BRANCH  27  32
ATOM     32  C   UNL     1      22.766   3.345  20.214  1.00  0.00     0.252 C 
ATOM     33  N   UNL     1      23.615   2.336  19.706  1.00  0.00    -0.365 N 
ATOM     34  O   UNL     1      23.226   4.509  20.253  1.00  0.00    -0.269 OA
ATOM     35  H   UNL     1      24.352   1.847  20.285  1.00  0.00     0.159 HD
ATOM     36  H   UNL     1      23.472   2.085  18.684  1.00  0.00     0.159 HD
ENDBRANCH  27  32
ENDBRANCH  25  26
ENDBRANCH  24  25
ENDBRANCH   5  24
TORSDOF 9
ENDMDL
MODEL 8
REMARK VINA RESULT:   -10.207      1.997      3.921
REMARK INTER + INTRA:         -17.125
REMARK INTER:                 -15.219
REMARK INTRA:                  -1.906
REMARK UNBOUND:                -1.548
REMARK SMILES Cc1cc(C(=O)NCCNC(=O)c2cccc(COc3ccccc3C(N)=O)c2)[nH]n1
REMARK SMILES IDX 13 1 14 2 15 3 16 4 17 5 29 6 11 7 12 8 10 9 9 11 8 12 7 13
REMARK SMILES IDX 5 14 6 16 4 17 3 18 30 19 2 20 31 21 1 23 18 24 19 25 20 26
REMARK SMILES IDX 25 27 21 28 24 29 22 30 23 31 26 32 27 33 28 34
REMARK H PARENT 10 10 7 15 30 22 27 35 27 36
REMARK Flexibility Score: inf
ROOT
ATOM      1  C   UNL     1      20.853   1.162  14.532  1.00  0.00     0.040 A 
ATOM      2  C   UNL     1      22.134   1.272  14.052  1.00  0.00     0.014 A 
ATOM      3  C   UNL     1      23.168   1.322  14.978  1.00  0.00     0.001 A 
ATOM      4  C   UNL     1      22.944   1.268  16.331  1.00  0.00     0.007 A 
ATOM      5  C   UNL     1      21.682   1.159  16.825  1.00  0.00    -0.010 A 
ATOM      6  C   UNL     1      20.650   1.108  15.908  1.00  0.00     0.021 A 
ENDROOT
BRANCH   1   7
ATOM      7  C   UNL     1      19.687   1.098  13.678  1.00  0.00     0.251 C 
ATOM      8  O   UNL     1      19.425   0.035  13.075  1.00  0.00    -0.269 OA
ATOM      9  N   UNL     1      18.843   2.215  13.517  1.00  0.00    -0.350 N 
ATOM     10  H   UNL     1      19.063   3.090  14.018  1.00  0.00     0.163 HD
BRANCH   9  11
ATOM     11  C   UNL     1      17.664   2.228  12.680  1.00  0.00     0.137 C 
BRANCH  11  12
ATOM     12  C   UNL     1      16.460   1.964  13.560  1.00  0.00     0.137 C 
BRANCH  12  13
ATOM     13  N   UNL     1      16.256   0.557  13.826  1.00  0.00    -0.349 N 
ATOM     14  C   UNL     1      16.601  -0.002  15.069  1.00  0.00     0.269 C 
ATOM     15  H   UNL     1      15.846  -0.050  13.083  1.00  0.00     0.163 HD
ATOM     16  O   UNL     1      17.091   0.729  15.959  1.00  0.00    -0.268 OA
BRANCH  14  17
ATOM     17  C   UNL     1      16.411  -1.425  15.377  1.00  0.00     0.123 A 
ATOM     18  C   UNL     1      15.315  -2.214  15.049  1.00  0.00     0.058 A 
ATOM     19  N   UNL     1      17.250  -2.246  16.031  1.00  0.00    -0.273 N 
ATOM     20  C   UNL     1      15.525  -3.495  15.517  1.00  0.00     0.060 A 
ATOM     21  N   UNL     1      16.728  -3.459  16.112  1.00  0.00    -0.180 NA
ATOM     22  H   UNL     1      18.187  -1.945  16.417  1.00  0.00     0.190 HD
ATOM     23  C   UNL     1      14.626  -4.683  15.401  1.00  0.00     0.069 C 
ENDBRANCH  14  17
ENDBRANCH  12  13
ENDBRANCH  11  12
ENDBRANCH   9  11
ENDBRANCH   1   7
BRANCH   5  24
ATOM     24  C   UNL     1      21.365   1.098  18.262  1.00  0.00     0.265 C 
BRANCH  24  25
ATOM     25  O   UNL     1      20.280   1.936  18.570  1.00  0.00    -0.488 OA
BRANCH  25  26
ATOM     26  C   UNL     1      20.186   2.394  19.900  1.00  0.00     0.132 A 
ATOM     27  C   UNL     1      18.944   2.579  20.460  1.00  0.00     0.081 A 
ATOM     28  C   UNL     1      21.334   2.653  20.627  1.00  0.00     0.047 A 
ATOM     29  C   UNL     1      18.898   3.037  21.782  1.00  0.00     0.018 A 
ATOM     30  C   UNL     1      21.251   3.102  21.926  1.00  0.00     0.004 A 
ATOM     31  C   UNL     1      20.030   3.298  22.516  1.00  0.00     0.001 A 
BRANCH  27  32
ATOM     32  C   UNL     1      17.691   2.321  19.752  1.00  0.00     0.252 C 
ATOM     33  N   UNL     1      17.668   2.086  18.359  1.00  0.00    -0.365 N 
ATOM     34  O   UNL     1      16.592   2.298  20.351  1.00  0.00    -0.269 OA
ATOM     35  H   UNL     1      17.452   2.835  17.644  1.00  0.00     0.159 HD
ATOM     36  H   UNL     1      17.886   1.092  18.056  1.00  0.00     0.159 HD
ENDBRANCH  27  32
ENDBRANCH  25  26
ENDBRANCH  24  25
ENDBRANCH   5  24
TORSDOF 9
ENDMDL
MODEL 9
REMARK VINA RESULT:   -10.084      2.927      3.953
REMARK INTER + INTRA:         -16.938
REMARK INTER:                 -15.461
REMARK INTRA:                  -1.476
REMARK UNBOUND:                -1.548
REMARK SMILES Cc1cc(C(=O)NCCNC(=O)c2cccc(COc3ccccc3C(N)=O)c2)[nH]n1
REMARK SMILES IDX 13 1 14 2 15 3 16 4 17 5 29 6 11 7 12 8 10 9 9 11 8 12 7 13
REMARK SMILES IDX 5 14 6 16 4 17 3 18 30 19 2 20 31 21 1 23 18 24 19 25 20 26
REMARK SMILES IDX 25 27 21 28 24 29 22 30 23 31 26 32 27 33 28 34
REMARK H PARENT 10 10 7 15 30 22 27 35 27 36
REMARK Flexibility Score: inf
ROOT
ATOM      1  C   UNL     1      20.857  -2.161  16.945  1.00  0.00     0.040 A 
ATOM      2  C   UNL     1      22.194  -2.459  16.876  1.00  0.00     0.014 A 
ATOM      3  C   UNL     1      23.097  -1.422  17.070  1.00  0.00     0.001 A 
ATOM      4  C   UNL     1      22.692  -0.134  17.322  1.00  0.00     0.007 A 
ATOM      5  C   UNL     1      21.370   0.179  17.393  1.00  0.00    -0.010 A 
ATOM      6  C   UNL     1      20.468  -0.849  17.202  1.00  0.00     0.021 A 
ENDROOT
BRANCH   1   7
ATOM      7  C   UNL     1      19.813  -3.146  16.764  1.00  0.00     0.251 C 
ATOM      8  O   UNL     1      19.878  -3.942  15.802  1.00  0.00    -0.269 OA
ATOM      9  N   UNL     1      18.724  -3.222  17.655  1.00  0.00    -0.350 N 
ATOM     10  H   UNL     1      18.675  -2.564  18.449  1.00  0.00     0.163 HD
BRANCH   9  11
ATOM     11  C   UNL     1      17.643  -4.176  17.539  1.00  0.00     0.137 C 
BRANCH  11  12
ATOM     12  C   UNL     1      16.563  -3.559  16.675  1.00  0.00     0.137 C 
BRANCH  12  13
ATOM     13  N   UNL     1      16.588  -4.045  15.313  1.00  0.00    -0.349 N 
ATOM     14  C   UNL     1      15.826  -5.163  14.929  1.00  0.00     0.269 C 
ATOM     15  H   UNL     1      17.180  -3.558  14.605  1.00  0.00     0.163 HD
ATOM     16  O   UNL     1      15.115  -5.745  15.779  1.00  0.00    -0.268 OA
BRANCH  14  17
ATOM     17  C   UNL     1      15.826  -5.688  13.558  1.00  0.00     0.123 A 
ATOM     18  C   UNL     1      16.708  -6.614  13.015  1.00  0.00     0.058 A 
ATOM     19  N   UNL     1      14.980  -5.383  12.559  1.00  0.00    -0.273 N 
ATOM     20  C   UNL     1      16.368  -6.843  11.698  1.00  0.00     0.060 A 
ATOM     21  N   UNL     1      15.300  -6.061  11.470  1.00  0.00    -0.180 NA
ATOM     22  H   UNL     1      14.181  -4.697  12.652  1.00  0.00     0.190 HD
ATOM     23  C   UNL     1      17.028  -7.755  10.716  1.00  0.00     0.069 C 
ENDBRANCH  14  17
ENDBRANCH  12  13
ENDBRANCH  11  12
ENDBRANCH   9  11
ENDBRANCH   1   7
BRANCH   5  24
ATOM     24  C   UNL     1      20.862   1.536  17.656  1.00  0.00     0.265 C 
BRANCH  24  25
ATOM     25  O   UNL     1      20.920   1.833  19.028  1.00  0.00    -0.488 OA
BRANCH  25  26
ATOM     26  C   UNL     1      19.698   2.123  19.670  1.00  0.00     0.132 A 
ATOM     27  C   UNL     1      19.696   2.408  21.015  1.00  0.00     0.081 A 
ATOM     28  C   UNL     1      18.517   2.117  18.948  1.00  0.00     0.047 A 
ATOM     29  C   UNL     1      18.461   2.687  21.610  1.00  0.00     0.018 A 
ATOM     30  C   UNL     1      17.320   2.397  19.567  1.00  0.00     0.004 A 
ATOM     31  C   UNL     1      17.281   2.686  20.906  1.00  0.00     0.001 A 
BRANCH  27  32
ATOM     32  C   UNL     1      20.905   2.436  21.837  1.00  0.00     0.252 C 
ATOM     33  N   UNL     1      22.035   3.195  21.458  1.00  0.00    -0.365 N 
ATOM     34  O   UNL     1      20.986   1.791  22.907  1.00  0.00    -0.269 OA
ATOM     35  H   UNL     1      22.870   2.786  20.954  1.00  0.00     0.159 HD
ATOM     36  H   UNL     1      22.003   4.226  21.710  1.00  0.00     0.159 HD
ENDBRANCH  27  32
ENDBRANCH  25  26
ENDBRANCH  24  25
ENDBRANCH   5  24
TORSDOF 9
ENDMDL
MODEL 10
REMARK VINA RESULT:   -10.083      3.299      5.908
REMARK INTER + INTRA:         -16.937
REMARK INTER:                 -14.731
REMARK INTRA:                  -2.206
REMARK UNBOUND:                -1.548
REMARK SMILES Cc1cc(C(=O)NCCNC(=O)c2cccc(COc3ccccc3C(N)=O)c2)[nH]n1
REMARK SMILES IDX 13 1 14 2 15 3 16 4 17 5 29 6 11 7 12 8 10 9 9 11 8 12 7 13
REMARK SMILES IDX 5 14 6 16 4 17 3 18 30 19 2 20 31 21 1 23 18 24 19 25 20 26
REMARK SMILES IDX 25 27 21 28 24 29 22 30 23 31 26 32 27 33 28 34
REMARK H PARENT 10 10 7 15 30 22 27 35 27 36
REMARK Flexibility Score: inf
ROOT
ATOM      1  C   UNL     1      19.178   2.409  20.141  1.00  0.00     0.040 A 
ATOM      2  C   UNL     1      19.005   2.631  21.484  1.00  0.00     0.014 A 
ATOM      3  C   UNL     1      20.138   2.864  22.251  1.00  0.00     0.001 A 
ATOM      4  C   UNL     1      21.400   2.876  21.710  1.00  0.00     0.007 A 
ATOM      5  C   UNL     1      21.591   2.659  20.381  1.00  0.00    -0.010 A 
ATOM      6  C   UNL     1      20.466   2.427  19.614  1.00  0.00     0.021 A 
ENDROOT
BRANCH   1   7
ATOM      7  C   UNL     1      18.083   2.156  19.229  1.00  0.00     0.251 C 
ATOM      8  O   UNL     1      16.906   2.264  19.637  1.00  0.00    -0.269 OA
ATOM      9  N   UNL     1      18.324   1.790  17.890  1.00  0.00    -0.350 N 
ATOM     10  H   UNL     1      19.298   1.703  17.558  1.00  0.00     0.163 HD
BRANCH   9  11
ATOM     11  C   UNL     1      17.284   1.518  16.922  1.00  0.00     0.137 C 
BRANCH  11  12
ATOM     12  C   UNL     1      17.671   0.271  16.154  1.00  0.00     0.137 C 
BRANCH  12  13
ATOM     13  N   UNL     1      19.056   0.275  15.740  1.00  0.00    -0.349 N 
ATOM     14  C   UNL     1      19.430   0.734  14.464  1.00  0.00     0.269 C 
ATOM     15  H   UNL     1      19.789  -0.068  16.399  1.00  0.00     0.163 HD
ATOM     16  O   UNL     1      18.548   1.146  13.676  1.00  0.00    -0.268 OA
BRANCH  14  17
ATOM     17  C   UNL     1      20.824   0.752  14.006  1.00  0.00     0.123 A 
ATOM     18  C   UNL     1      21.527  -0.295  13.420  1.00  0.00     0.058 A 
ATOM     19  N   UNL     1      21.696   1.773  14.058  1.00  0.00    -0.273 N 
ATOM     20  C   UNL     1      22.809   0.127  13.135  1.00  0.00     0.060 A 
ATOM     21  N   UNL     1      22.859   1.404  13.547  1.00  0.00    -0.180 NA
ATOM     22  H   UNL     1      21.465   2.725  14.455  1.00  0.00     0.190 HD
ATOM     23  C   UNL     1      23.921  -0.648  12.505  1.00  0.00     0.069 C 
ENDBRANCH  14  17
ENDBRANCH  12  13
ENDBRANCH  11  12
ENDBRANCH   9  11
ENDBRANCH   1   7
BRANCH   5  24
ATOM     24  C   UNL     1      22.913   2.655  19.732  1.00  0.00     0.265 C 
BRANCH  24  25
ATOM     25  O   UNL     1      22.783   2.564  18.336  1.00  0.00    -0.488 OA
BRANCH  25  26
ATOM     26  C   UNL     1      23.157   1.343  17.738  1.00  0.00     0.132 A 
ATOM     27  C   UNL     1      24.352   1.264  17.063  1.00  0.00     0.081 A 
ATOM     28  C   UNL     1      22.325   0.242  17.833  1.00  0.00     0.047 A 
ATOM     29  C   UNL     1      24.681   0.033  16.485  1.00  0.00     0.018 A 
ATOM     30  C   UNL     1      22.682  -0.954  17.252  1.00  0.00     0.004 A 
ATOM     31  C   UNL     1      23.865  -1.070  16.571  1.00  0.00     0.001 A 
BRANCH  27  32
ATOM     32  C   UNL     1      25.280   2.385  16.928  1.00  0.00     0.252 C 
ATOM     33  N   UNL     1      24.816   3.716  16.822  1.00  0.00    -0.365 N 
ATOM     34  O   UNL     1      26.520   2.211  16.903  1.00  0.00    -0.269 OA
ATOM     35  H   UNL     1      24.700   4.222  15.901  1.00  0.00     0.159 HD
ATOM     36  H   UNL     1      24.582   4.197  17.740  1.00  0.00     0.159 HD
ENDBRANCH  27  32
ENDBRANCH  25  26
ENDBRANCH  24  25
ENDBRANCH   5  24
TORSDOF 9
ENDMDL
