MODEL 1
REMARK VINA RESULT:   -10.901      0.000      0.000
REMARK INTER + INTRA:         -18.162
REMARK INTER:                 -16.636
REMARK INTRA:                  -1.526
REMARK UNBOUND:                -1.526
REMARK SMILES NC(=O)c1ccccc1OCc1cccc(C(=O)NCCNC(=O)c2ncc[nH]2)c1
REMARK SMILES IDX 16 1 15 2 14 3 13 4 12 5 30 6 17 7 18 8 19 9 20 11 21 12
REMARK SMILES IDX 22 13 23 14 24 16 25 17 26 18 29 19 27 20 28 21 11 23 10 24
REMARK SMILES IDX 9 25 4 26 8 27 5 28 7 29 6 30 2 31 1 32 3 33
REMARK H PARENT 19 10 22 15 29 22 1 34 1 35
REMARK Flexibility Score: inf
ROOT
ATOM      1  C   UNL     1      20.797  -1.963  16.979  1.00  0.00     0.040 A 
ATOM      2  C   UNL     1      22.156  -2.171  16.970  1.00  0.00     0.014 A 
ATOM      3  C   UNL     1      22.977  -1.097  17.242  1.00  0.00     0.001 A 
ATOM      4  C   UNL     1      22.437   0.126  17.509  1.00  0.00     0.007 A 
ATOM      5  C   UNL     1      21.048   0.337  17.518  1.00  0.00    -0.010 A 
ATOM      6  C   UNL     1      20.224  -0.734  17.246  1.00  0.00     0.021 A 
ENDROOT
BRANCH   1   7
ATOM      7  C   UNL     1      19.900  -3.110  16.685  1.00  0.00     0.251 C 
ATOM      8  O   UNL     1      20.455  -4.211  16.491  1.00  0.00    -0.269 OA
ATOM      9  N   UNL     1      18.522  -2.957  16.634  1.00  0.00    -0.350 N 
ATOM     10  H   UNL     1      18.155  -1.948  16.845  1.00  0.00     0.163 HD
BRANCH   9  11
ATOM     11  C   UNL     1      17.518  -3.906  16.349  1.00  0.00     0.137 C 
BRANCH  11  12
ATOM     12  C   UNL     1      16.740  -3.787  15.114  1.00  0.00     0.137 C 
BRANCH  12  13
ATOM     13  N   UNL     1      17.039  -2.865  14.097  1.00  0.00    -0.348 N 
ATOM     14  C   UNL     1      16.395  -1.551  14.173  1.00  0.00     0.287 C 
ATOM     15  H   UNL     1      17.644  -3.007  13.292  1.00  0.00     0.163 HD
ATOM     16  O   UNL     1      15.609  -1.280  15.100  1.00  0.00    -0.266 OA
BRANCH  14  17
ATOM     17  C   UNL     1      16.679  -0.560  13.158  1.00  0.00     0.196 A 
ATOM     18  N   UNL     1      16.270   0.715  13.175  1.00  0.00    -0.232 NA
ATOM     19  N   UNL     1      17.387  -0.738  12.037  1.00  0.00    -0.341 N 
ATOM     20  C   UNL     1      16.709   1.352  12.077  1.00  0.00     0.131 A 
ATOM     21  C   UNL     1      17.434   0.405  11.340  1.00  0.00     0.104 A 
ATOM     22  H   UNL     1      17.844  -1.635  11.735  1.00  0.00     0.168 HD
ENDBRANCH  14  17
ENDBRANCH  12  13
ENDBRANCH  11  12
ENDBRANCH   9  11
ENDBRANCH   1   7
BRANCH   5  23
ATOM     23  C   UNL     1      20.584   1.700  17.817  1.00  0.00     0.265 C 
BRANCH  23  24
ATOM     24  O   UNL     1      19.645   1.791  18.843  1.00  0.00    -0.488 OA
BRANCH  24  25
ATOM     25  C   UNL     1      19.821   2.349  20.073  1.00  0.00     0.132 A 
ATOM     26  C   UNL     1      18.778   2.712  20.886  1.00  0.00     0.081 A 
ATOM     27  C   UNL     1      21.103   2.556  20.515  1.00  0.00     0.047 A 
ATOM     28  C   UNL     1      19.007   3.270  22.120  1.00  0.00     0.018 A 
ATOM     29  C   UNL     1      21.375   3.116  21.752  1.00  0.00     0.004 A 
ATOM     30  C   UNL     1      20.302   3.468  22.542  1.00  0.00     0.001 A 
BRANCH  26  31
ATOM     31  C   UNL     1      17.403   2.501  20.436  1.00  0.00     0.252 C 
ATOM     32  N   UNL     1      16.997   2.644  19.094  1.00  0.00    -0.365 N 
ATOM     33  O   UNL     1      16.555   2.179  21.303  1.00  0.00    -0.269 OA
ATOM     34  H   UNL     1      17.088   1.891  18.380  1.00  0.00     0.159 HD
ATOM     35  H   UNL     1      16.579   3.545  18.773  1.00  0.00     0.159 HD
ENDBRANCH  26  31
ENDBRANCH  24  25
ENDBRANCH  23  24
ENDBRANCH   5  23
TORSDOF 9
ENDMDL
MODEL 2
REMARK VINA RESULT:   -10.872      2.809      3.453
REMARK INTER + INTRA:         -18.119
REMARK INTER:                 -17.064
REMARK INTRA:                  -1.055
REMARK UNBOUND:                -1.526
REMARK SMILES NC(=O)c1ccccc1OCc1cccc(C(=O)NCCNC(=O)c2ncc[nH]2)c1
REMARK SMILES IDX 16 1 15 2 14 3 13 4 12 5 30 6 17 7 18 8 19 9 20 11 21 12
REMARK SMILES IDX 22 13 23 14 24 16 25 17 26 18 29 19 27 20 28 21 11 23 10 24
REMARK SMILES IDX 9 25 4 26 8 27 5 28 7 29 6 30 2 31 1 32 3 33
REMARK H PARENT 19 10 22 15 29 22 1 34 1 35
REMARK Flexibility Score: inf
ROOT
ATOM      1  C   UNL     1      19.876  -1.994  17.517  1.00  0.00     0.040 A 
ATOM      2  C   UNL     1      21.037  -2.608  17.110  1.00  0.00     0.014 A 
ATOM      3  C   UNL     1      22.153  -1.821  16.920  1.00  0.00     0.001 A 
ATOM      4  C   UNL     1      22.085  -0.476  17.134  1.00  0.00     0.007 A 
ATOM      5  C   UNL     1      20.898   0.149  17.549  1.00  0.00    -0.010 A 
ATOM      6  C   UNL     1      19.780  -0.634  17.741  1.00  0.00     0.021 A 
ENDROOT
BRANCH   1   7
ATOM      7  C   UNL     1      18.665  -2.830  17.724  1.00  0.00     0.251 C 
ATOM      8  O   UNL     1      18.577  -3.416  18.821  1.00  0.00    -0.269 OA
ATOM      9  N   UNL     1      17.688  -2.943  16.745  1.00  0.00    -0.350 N 
ATOM     10  H   UNL     1      17.868  -2.362  15.834  1.00  0.00     0.163 HD
BRANCH   9  11
ATOM     11  C   UNL     1      16.497  -3.698  16.741  1.00  0.00     0.137 C 
BRANCH  11  12
ATOM     12  C   UNL     1      16.526  -5.096  16.308  1.00  0.00     0.137 C 
BRANCH  12  13
ATOM     13  N   UNL     1      16.721  -5.489  14.973  1.00  0.00    -0.348 N 
ATOM     14  C   UNL     1      15.652  -6.265  14.340  1.00  0.00     0.287 C 
ATOM     15  H   UNL     1      17.536  -5.313  14.390  1.00  0.00     0.163 HD
ATOM     16  O   UNL     1      14.623  -6.565  14.974  1.00  0.00    -0.266 OA
BRANCH  14  17
ATOM     17  C   UNL     1      15.797  -6.683  12.963  1.00  0.00     0.196 A 
ATOM     18  N   UNL     1      15.059  -6.250  11.933  1.00  0.00    -0.232 NA
ATOM     19  N   UNL     1      16.678  -7.567  12.480  1.00  0.00    -0.341 N 
ATOM     20  C   UNL     1      15.458  -6.848  10.799  1.00  0.00     0.131 A 
ATOM     21  C   UNL     1      16.510  -7.703  11.157  1.00  0.00     0.104 A 
ATOM     22  H   UNL     1      17.399  -8.085  13.041  1.00  0.00     0.168 HD
ENDBRANCH  14  17
ENDBRANCH  12  13
ENDBRANCH  11  12
ENDBRANCH   9  11
ENDBRANCH   1   7
BRANCH   5  23
ATOM     23  C   UNL     1      20.947   1.606  17.745  1.00  0.00     0.265 C 
BRANCH  23  24
ATOM     24  O   UNL     1      19.932   2.128  18.546  1.00  0.00    -0.488 OA
BRANCH  24  25
ATOM     25  C   UNL     1      20.012   2.459  19.864  1.00  0.00     0.132 A 
ATOM     26  C   UNL     1      18.910   2.619  20.664  1.00  0.00     0.081 A 
ATOM     27  C   UNL     1      21.256   2.643  20.414  1.00  0.00     0.047 A 
ATOM     28  C   UNL     1      19.042   2.954  21.989  1.00  0.00     0.018 A 
ATOM     29  C   UNL     1      21.430   2.981  21.745  1.00  0.00     0.004 A 
ATOM     30  C   UNL     1      20.300   3.132  22.518  1.00  0.00     0.001 A 
BRANCH  26  31
ATOM     31  C   UNL     1      17.574   2.430  20.100  1.00  0.00     0.252 C 
ATOM     32  N   UNL     1      17.323   2.342  18.716  1.00  0.00    -0.365 N 
ATOM     33  O   UNL     1      16.614   2.344  20.905  1.00  0.00    -0.269 OA
ATOM     34  H   UNL     1      17.413   1.461  18.168  1.00  0.00     0.159 HD
ATOM     35  H   UNL     1      17.028   3.193  18.189  1.00  0.00     0.159 HD
ENDBRANCH  26  31
ENDBRANCH  24  25
ENDBRANCH  23  24
ENDBRANCH   5  23
TORSDOF 9
ENDMDL
MODEL 3
REMARK VINA RESULT:   -10.229      1.550      2.041
REMARK INTER + INTRA:         -17.137
REMARK INTER:                 -15.864
REMARK INTRA:                  -1.273
REMARK UNBOUND:                -1.526
REMARK SMILES NC(=O)c1ccccc1OCc1cccc(C(=O)NCCNC(=O)c2ncc[nH]2)c1
REMARK SMILES IDX 16 1 15 2 14 3 13 4 12 5 30 6 17 7 18 8 19 9 20 11 21 12
REMARK SMILES IDX 22 13 23 14 24 16 25 17 26 18 29 19 27 20 28 21 11 23 10 24
REMARK SMILES IDX 9 25 4 26 8 27 5 28 7 29 6 30 2 31 1 32 3 33
REMARK H PARENT 19 10 22 15 29 22 1 34 1 35
REMARK Flexibility Score: inf
ROOT
ATOM      1  C   UNL     1      20.593  -2.038  17.331  1.00  0.00     0.040 A 
ATOM      2  C   UNL     1      21.804  -2.587  16.982  1.00  0.00     0.014 A 
ATOM      3  C   UNL     1      22.907  -1.761  16.956  1.00  0.00     0.001 A 
ATOM      4  C   UNL     1      22.779  -0.440  17.270  1.00  0.00     0.007 A 
ATOM      5  C   UNL     1      21.541   0.120  17.626  1.00  0.00    -0.010 A 
ATOM      6  C   UNL     1      20.436  -0.703  17.653  1.00  0.00     0.021 A 
ENDROOT
BRANCH   1   7
ATOM      7  C   UNL     1      19.396  -2.916  17.361  1.00  0.00     0.251 C 
ATOM      8  O   UNL     1      18.998  -3.273  18.489  1.00  0.00    -0.269 OA
ATOM      9  N   UNL     1      18.759  -3.312  16.194  1.00  0.00    -0.350 N 
ATOM     10  H   UNL     1      19.189  -2.914  15.268  1.00  0.00     0.163 HD
BRANCH   9  11
ATOM     11  C   UNL     1      17.641  -4.152  16.015  1.00  0.00     0.137 C 
BRANCH  11  12
ATOM     12  C   UNL     1      16.710  -3.895  14.914  1.00  0.00     0.137 C 
BRANCH  12  13
ATOM     13  N   UNL     1      16.947  -2.943  13.908  1.00  0.00    -0.348 N 
ATOM     14  C   UNL     1      16.482  -1.576  14.156  1.00  0.00     0.287 C 
ATOM     15  H   UNL     1      17.392  -3.095  13.006  1.00  0.00     0.163 HD
ATOM     16  O   UNL     1      15.893  -1.286  15.215  1.00  0.00    -0.266 OA
BRANCH  14  17
ATOM     17  C   UNL     1      16.712  -0.555  13.158  1.00  0.00     0.196 A 
ATOM     18  N   UNL     1      16.240   0.697  13.198  1.00  0.00    -0.232 NA
ATOM     19  N   UNL     1      17.423  -0.678  12.031  1.00  0.00    -0.341 N 
ATOM     20  C   UNL     1      16.641   1.375  12.110  1.00  0.00     0.131 A 
ATOM     21  C   UNL     1      17.410   0.479  11.354  1.00  0.00     0.104 A 
ATOM     22  H   UNL     1      17.924  -1.545  11.712  1.00  0.00     0.168 HD
ENDBRANCH  14  17
ENDBRANCH  12  13
ENDBRANCH  11  12
ENDBRANCH   9  11
ENDBRANCH   1   7
BRANCH   5  23
ATOM     23  C   UNL     1      21.527   1.556  17.941  1.00  0.00     0.265 C 
BRANCH  23  24
ATOM     24  O   UNL     1      21.142   1.871  19.244  1.00  0.00    -0.488 OA
BRANCH  24  25
ATOM     25  C   UNL     1      19.911   2.276  19.663  1.00  0.00     0.132 A 
ATOM     26  C   UNL     1      19.696   2.889  20.870  1.00  0.00     0.081 A 
ATOM     27  C   UNL     1      18.839   2.057  18.836  1.00  0.00     0.047 A 
ATOM     28  C   UNL     1      18.436   3.280  21.249  1.00  0.00     0.018 A 
ATOM     29  C   UNL     1      17.553   2.437  19.181  1.00  0.00     0.004 A 
ATOM     30  C   UNL     1      17.375   3.051  20.402  1.00  0.00     0.001 A 
BRANCH  26  31
ATOM     31  C   UNL     1      20.825   3.132  21.769  1.00  0.00     0.252 C 
ATOM     32  N   UNL     1      22.133   3.392  21.316  1.00  0.00    -0.365 N 
ATOM     33  O   UNL     1      20.597   3.101  23.003  1.00  0.00    -0.269 OA
ATOM     34  H   UNL     1      22.469   4.338  21.034  1.00  0.00     0.159 HD
ATOM     35  H   UNL     1      22.823   2.612  21.250  1.00  0.00     0.159 HD
ENDBRANCH  26  31
ENDBRANCH  24  25
ENDBRANCH  23  24
ENDBRANCH   5  23
TORSDOF 9
ENDMDL
MODEL 4
REMARK VINA RESULT:   -10.005      2.033      3.564
REMARK INTER + INTRA:         -16.795
REMARK INTER:                 -14.842
REMARK INTRA:                  -1.953
REMARK UNBOUND:                -1.526
REMARK SMILES NC(=O)c1ccccc1OCc1cccc(C(=O)NCCNC(=O)c2ncc[nH]2)c1
REMARK SMILES IDX 16 1 15 2 14 3 13 4 12 5 30 6 17 7 18 8 19 9 20 11 21 12
REMARK SMILES IDX 22 13 23 14 24 16 25 17 26 18 29 19 27 20 28 21 11 23 10 24
REMARK SMILES IDX 9 25 4 26 8 27 5 28 7 29 6 30 2 31 1 32 3 33
REMARK H PARENT 19 10 22 15 29 22 1 34 1 35
REMARK Flexibility Score: inf
ROOT
ATOM      1  C   UNL     1      20.866   1.293  14.607  1.00  0.00     0.040 A 
ATOM      2  C   UNL     1      22.128   1.390  14.071  1.00  0.00     0.014 A 
ATOM      3  C   UNL     1      23.196   1.462  14.939  1.00  0.00     0.001 A 
ATOM      4  C   UNL     1      22.985   1.437  16.285  1.00  0.00     0.007 A 
ATOM      5  C   UNL     1      21.695   1.338  16.832  1.00  0.00    -0.010 A 
ATOM      6  C   UNL     1      20.625   1.266  15.967  1.00  0.00     0.021 A 
ENDROOT
BRANCH   1   7
ATOM      7  C   UNL     1      19.705   1.217  13.683  1.00  0.00     0.251 C 
ATOM      8  O   UNL     1      19.513   0.119  13.123  1.00  0.00    -0.269 OA
ATOM      9  N   UNL     1      18.882   2.313  13.463  1.00  0.00    -0.350 N 
ATOM     10  H   UNL     1      19.139   3.213  14.031  1.00  0.00     0.163 HD
BRANCH   9  11
ATOM     11  C   UNL     1      17.763   2.446  12.616  1.00  0.00     0.137 C 
BRANCH  11  12
ATOM     12  C   UNL     1      16.468   1.906  13.036  1.00  0.00     0.137 C 
BRANCH  12  13
ATOM     13  N   UNL     1      16.275   0.567  13.414  1.00  0.00    -0.348 N 
ATOM     14  C   UNL     1      16.478   0.232  14.825  1.00  0.00     0.287 C 
ATOM     15  H   UNL     1      16.024  -0.215  12.813  1.00  0.00     0.163 HD
ATOM     16  O   UNL     1      16.819   1.108  15.644  1.00  0.00    -0.266 OA
BRANCH  14  17
ATOM     17  C   UNL     1      16.279  -1.129  15.270  1.00  0.00     0.196 A 
ATOM     18  N   UNL     1      15.102  -1.764  15.340  1.00  0.00    -0.232 NA
ATOM     19  N   UNL     1      17.220  -1.984  15.689  1.00  0.00    -0.341 N 
ATOM     20  C   UNL     1      15.282  -3.014  15.799  1.00  0.00     0.131 A 
ATOM     21  C   UNL     1      16.658  -3.153  16.024  1.00  0.00     0.104 A 
ATOM     22  H   UNL     1      18.249  -1.782  15.750  1.00  0.00     0.168 HD
ENDBRANCH  14  17
ENDBRANCH  12  13
ENDBRANCH  11  12
ENDBRANCH   9  11
ENDBRANCH   1   7
BRANCH   5  23
ATOM     23  C   UNL     1      21.594   1.323  18.299  1.00  0.00     0.265 C 
BRANCH  23  24
ATOM     24  O   UNL     1      20.367   1.746  18.809  1.00  0.00    -0.488 OA
BRANCH  24  25
ATOM     25  C   UNL     1      20.136   2.336  20.015  1.00  0.00     0.132 A 
ATOM     26  C   UNL     1      18.879   2.633  20.474  1.00  0.00     0.081 A 
ATOM     27  C   UNL     1      21.215   2.647  20.803  1.00  0.00     0.047 A 
ATOM     28  C   UNL     1      18.697   3.228  21.698  1.00  0.00     0.018 A 
ATOM     29  C   UNL     1      21.073   3.246  22.043  1.00  0.00     0.004 A 
ATOM     30  C   UNL     1      19.794   3.529  22.472  1.00  0.00     0.001 A 
BRANCH  26  31
ATOM     31  C   UNL     1      17.714   2.311  19.650  1.00  0.00     0.252 C 
ATOM     32  N   UNL     1      17.791   2.051  18.268  1.00  0.00    -0.365 N 
ATOM     33  O   UNL     1      16.596   2.271  20.221  1.00  0.00    -0.269 OA
ATOM     34  H   UNL     1      18.026   1.118  17.868  1.00  0.00     0.159 HD
ATOM     35  H   UNL     1      17.606   2.819  17.586  1.00  0.00     0.159 HD
ENDBRANCH  26  31
ENDBRANCH  24  25
ENDBRANCH  23  24
ENDBRANCH   5  23
TORSDOF 9
ENDMDL
MODEL 5
REMARK VINA RESULT:    -9.788      2.035      2.552
REMARK INTER + INTRA:         -16.464
REMARK INTER:                 -13.676
REMARK INTRA:                  -2.788
REMARK UNBOUND:                -1.526
REMARK SMILES NC(=O)c1ccccc1OCc1cccc(C(=O)NCCNC(=O)c2ncc[nH]2)c1
REMARK SMILES IDX 16 1 15 2 14 3 13 4 12 5 30 6 17 7 18 8 19 9 20 11 21 12
REMARK SMILES IDX 22 13 23 14 24 16 25 17 26 18 29 19 27 20 28 21 11 23 10 24
REMARK SMILES IDX 9 25 4 26 8 27 5 28 7 29 6 30 2 31 1 32 3 33
REMARK H PARENT 19 10 22 15 29 22 1 34 1 35
REMARK Flexibility Score: inf
ROOT
ATOM      1  C   UNL     1      19.763  -2.871  16.251  1.00  0.00     0.040 A 
ATOM      2  C   UNL     1      20.711  -3.557  16.973  1.00  0.00     0.014 A 
ATOM      3  C   UNL     1      21.917  -2.934  17.213  1.00  0.00     0.001 A 
ATOM      4  C   UNL     1      22.143  -1.676  16.738  1.00  0.00     0.007 A 
ATOM      5  C   UNL     1      21.174  -0.978  15.999  1.00  0.00    -0.010 A 
ATOM      6  C   UNL     1      19.967  -1.597  15.758  1.00  0.00     0.021 A 
ENDROOT
BRANCH   1   7
ATOM      7  C   UNL     1      18.459  -3.531  15.983  1.00  0.00     0.251 C 
ATOM      8  O   UNL     1      18.488  -4.538  15.246  1.00  0.00    -0.269 OA
ATOM      9  N   UNL     1      17.279  -3.049  16.530  1.00  0.00    -0.350 N 
ATOM     10  H   UNL     1      17.386  -2.174  17.179  1.00  0.00     0.163 HD
BRANCH   9  11
ATOM     11  C   UNL     1      15.956  -3.514  16.375  1.00  0.00     0.137 C 
BRANCH  11  12
ATOM     12  C   UNL     1      15.023  -2.774  15.522  1.00  0.00     0.137 C 
BRANCH  12  13
ATOM     13  N   UNL     1      15.385  -1.628  14.793  1.00  0.00    -0.348 N 
ATOM     14  C   UNL     1      16.150  -1.832  13.561  1.00  0.00     0.287 C 
ATOM     15  H   UNL     1      15.191  -0.658  15.030  1.00  0.00     0.163 HD
ATOM     16  O   UNL     1      16.470  -2.978  13.192  1.00  0.00    -0.266 OA
BRANCH  14  17
ATOM     17  C   UNL     1      16.535  -0.687  12.765  1.00  0.00     0.196 A 
ATOM     18  N   UNL     1      16.084   0.563  12.925  1.00  0.00    -0.232 NA
ATOM     19  N   UNL     1      17.396  -0.674  11.741  1.00  0.00    -0.341 N 
ATOM     20  C   UNL     1      16.646   1.374  12.013  1.00  0.00     0.131 A 
ATOM     21  C   UNL     1      17.498   0.567  11.246  1.00  0.00     0.104 A 
ATOM     22  H   UNL     1      17.921  -1.505  11.369  1.00  0.00     0.168 HD
ENDBRANCH  14  17
ENDBRANCH  12  13
ENDBRANCH  11  12
ENDBRANCH   9  11
ENDBRANCH   1   7
BRANCH   5  23
ATOM     23  C   UNL     1      21.535   0.371  15.537  1.00  0.00     0.265 C 
BRANCH  23  24
ATOM     24  O   UNL     1      20.640   1.377  15.899  1.00  0.00    -0.488 OA
BRANCH  24  25
ATOM     25  C   UNL     1      20.102   1.597  17.130  1.00  0.00     0.132 A 
ATOM     26  C   UNL     1      18.755   1.535  17.381  1.00  0.00     0.081 A 
ATOM     27  C   UNL     1      20.951   1.895  18.166  1.00  0.00     0.047 A 
ATOM     28  C   UNL     1      18.261   1.764  18.641  1.00  0.00     0.018 A 
ATOM     29  C   UNL     1      20.491   2.132  19.450  1.00  0.00     0.004 A 
ATOM     30  C   UNL     1      19.132   2.060  19.664  1.00  0.00     0.001 A 
BRANCH  26  31
ATOM     31  C   UNL     1      17.831   1.219  16.292  1.00  0.00     0.252 C 
ATOM     32  N   UNL     1      17.775   1.949  15.088  1.00  0.00    -0.365 N 
ATOM     33  O   UNL     1      17.055   0.246  16.457  1.00  0.00    -0.269 OA
ATOM     34  H   UNL     1      18.405   1.775  14.277  1.00  0.00     0.159 HD
ATOM     35  H   UNL     1      17.071   2.712  14.978  1.00  0.00     0.159 HD
ENDBRANCH  26  31
ENDBRANCH  24  25
ENDBRANCH  23  24
ENDBRANCH   5  23
TORSDOF 9
ENDMDL
MODEL 6
REMARK VINA RESULT:    -9.786      2.778      4.352
REMARK INTER + INTRA:         -16.462
REMARK INTER:                 -15.338
REMARK INTRA:                  -1.123
REMARK UNBOUND:                -1.526
REMARK SMILES NC(=O)c1ccccc1OCc1cccc(C(=O)NCCNC(=O)c2ncc[nH]2)c1
REMARK SMILES IDX 16 1 15 2 14 3 13 4 12 5 30 6 17 7 18 8 19 9 20 11 21 12
REMARK SMILES IDX 22 13 23 14 24 16 25 17 26 18 29 19 27 20 28 21 11 23 10 24
REMARK SMILES IDX 9 25 4 26 8 27 5 28 7 29 6 30 2 31 1 32 3 33
REMARK H PARENT 19 10 22 15 29 22 1 34 1 35
REMARK Flexibility Score: inf
ROOT
ATOM      1  C   UNL     1      17.674  -0.356  15.240  1.00  0.00     0.040 A 
ATOM      2  C   UNL     1      17.972   0.106  13.979  1.00  0.00     0.014 A 
ATOM      3  C   UNL     1      18.958   1.061  13.856  1.00  0.00     0.001 A 
ATOM      4  C   UNL     1      19.606   1.521  14.964  1.00  0.00     0.007 A 
ATOM      5  C   UNL     1      19.300   1.049  16.251  1.00  0.00    -0.010 A 
ATOM      6  C   UNL     1      18.315   0.094  16.378  1.00  0.00     0.021 A 
ENDROOT
BRANCH   1   7
ATOM      7  C   UNL     1      16.612  -1.384  15.387  1.00  0.00     0.251 C 
ATOM      8  O   UNL     1      15.491  -1.093  14.924  1.00  0.00    -0.269 OA
ATOM      9  N   UNL     1      16.864  -2.601  16.006  1.00  0.00    -0.350 N 
ATOM     10  H   UNL     1      17.893  -2.747  16.349  1.00  0.00     0.163 HD
BRANCH   9  11
ATOM     11  C   UNL     1      15.993  -3.680  16.262  1.00  0.00     0.137 C 
BRANCH  11  12
ATOM     12  C   UNL     1      16.505  -5.051  16.212  1.00  0.00     0.137 C 
BRANCH  12  13
ATOM     13  N   UNL     1      16.879  -5.694  15.019  1.00  0.00    -0.348 N 
ATOM     14  C   UNL     1      15.885  -6.564  14.387  1.00  0.00     0.287 C 
ATOM     15  H   UNL     1      17.777  -5.641  14.544  1.00  0.00     0.163 HD
ATOM     16  O   UNL     1      14.763  -6.728  14.902  1.00  0.00    -0.266 OA
BRANCH  14  17
ATOM     17  C   UNL     1      16.214  -7.239  13.151  1.00  0.00     0.196 A 
ATOM     18  N   UNL     1      15.859  -8.487  12.823  1.00  0.00    -0.232 NA
ATOM     19  N   UNL     1      16.925  -6.745  12.130  1.00  0.00    -0.341 N 
ATOM     20  C   UNL     1      16.336  -8.796  11.606  1.00  0.00     0.131 A 
ATOM     21  C   UNL     1      17.028  -7.662  11.158  1.00  0.00     0.104 A 
ATOM     22  H   UNL     1      17.346  -5.783  12.083  1.00  0.00     0.168 HD
ENDBRANCH  14  17
ENDBRANCH  12  13
ENDBRANCH  11  12
ENDBRANCH   9  11
ENDBRANCH   1   7
BRANCH   5  23
ATOM     23  C   UNL     1      20.064   1.623  17.368  1.00  0.00     0.265 C 
BRANCH  23  24
ATOM     24  O   UNL     1      19.455   1.511  18.618  1.00  0.00    -0.488 OA
BRANCH  24  25
ATOM     25  C   UNL     1      19.801   2.162  19.763  1.00  0.00     0.132 A 
ATOM     26  C   UNL     1      18.879   2.644  20.657  1.00  0.00     0.081 A 
ATOM     27  C   UNL     1      21.134   2.344  20.030  1.00  0.00     0.047 A 
ATOM     28  C   UNL     1      19.277   3.293  21.800  1.00  0.00     0.018 A 
ATOM     29  C   UNL     1      21.575   2.994  21.170  1.00  0.00     0.004 A 
ATOM     30  C   UNL     1      20.621   3.463  22.047  1.00  0.00     0.001 A 
BRANCH  26  31
ATOM     31  C   UNL     1      17.452   2.462  20.393  1.00  0.00     0.252 C 
ATOM     32  N   UNL     1      16.889   2.532  19.104  1.00  0.00    -0.365 N 
ATOM     33  O   UNL     1      16.707   2.236  21.378  1.00  0.00    -0.269 OA
ATOM     34  H   UNL     1      16.864   1.729  18.440  1.00  0.00     0.159 HD
ATOM     35  H   UNL     1      16.465   3.426  18.772  1.00  0.00     0.159 HD
ENDBRANCH  26  31
ENDBRANCH  24  25
ENDBRANCH  23  24
ENDBRANCH   5  23
TORSDOF 9
ENDMDL
MODEL 7
REMARK VINA RESULT:    -9.742      2.140      2.869
REMARK INTER + INTRA:         -16.395
REMARK INTER:                 -14.786
REMARK INTRA:                  -1.608
REMARK UNBOUND:                -1.526
REMARK SMILES NC(=O)c1ccccc1OCc1cccc(C(=O)NCCNC(=O)c2ncc[nH]2)c1
REMARK SMILES IDX 16 1 15 2 14 3 13 4 12 5 30 6 17 7 18 8 19 9 20 11 21 12
REMARK SMILES IDX 22 13 23 14 24 16 25 17 26 18 29 19 27 20 28 21 11 23 10 24
REMARK SMILES IDX 9 25 4 26 8 27 5 28 7 29 6 30 2 31 1 32 3 33
REMARK H PARENT 19 10 22 15 29 22 1 34 1 35
REMARK Flexibility Score: inf
ROOT
ATOM      1  C   UNL     1      23.122  -0.190  17.165  1.00  0.00     0.040 A 
ATOM      2  C   UNL     1      24.496  -0.145  17.188  1.00  0.00     0.014 A 
ATOM      3  C   UNL     1      25.099   0.819  17.967  1.00  0.00     0.001 A 
ATOM      4  C   UNL     1      24.337   1.692  18.685  1.00  0.00     0.007 A 
ATOM      5  C   UNL     1      22.934   1.645  18.660  1.00  0.00    -0.010 A 
ATOM      6  C   UNL     1      22.327   0.683  17.883  1.00  0.00     0.021 A 
ENDROOT
BRANCH   1   7
ATOM      7  C   UNL     1      22.459  -1.223  16.327  1.00  0.00     0.251 C 
ATOM      8  O   UNL     1      22.926  -1.391  15.183  1.00  0.00    -0.269 OA
ATOM      9  N   UNL     1      21.382  -1.957  16.802  1.00  0.00    -0.350 N 
ATOM     10  H   UNL     1      21.080  -1.733  17.831  1.00  0.00     0.163 HD
BRANCH   9  11
ATOM     11  C   UNL     1      20.611  -2.948  16.160  1.00  0.00     0.137 C 
BRANCH  11  12
ATOM     12  C   UNL     1      19.184  -2.719  15.929  1.00  0.00     0.137 C 
BRANCH  12  13
ATOM     13  N   UNL     1      18.671  -2.168  14.743  1.00  0.00    -0.348 N 
ATOM     14  C   UNL     1      18.728  -0.711  14.601  1.00  0.00     0.287 C 
ATOM     15  H   UNL     1      18.241  -2.664  13.965  1.00  0.00     0.163 HD
ATOM     16  O   UNL     1      19.204  -0.001  15.508  1.00  0.00    -0.266 OA
BRANCH  14  17
ATOM     17  C   UNL     1      18.225  -0.093  13.394  1.00  0.00     0.196 A 
ATOM     18  N   UNL     1      17.974   1.212  13.230  1.00  0.00    -0.232 NA
ATOM     19  N   UNL     1      17.923  -0.706  12.244  1.00  0.00    -0.341 N 
ATOM     20  C   UNL     1      17.514   1.438  11.989  1.00  0.00     0.131 A 
ATOM     21  C   UNL     1      17.482   0.191  11.350  1.00  0.00     0.104 A 
ATOM     22  H   UNL     1      18.013  -1.735  12.054  1.00  0.00     0.168 HD
ENDBRANCH  14  17
ENDBRANCH  12  13
ENDBRANCH  11  12
ENDBRANCH   9  11
ENDBRANCH   1   7
BRANCH   5  23
ATOM     23  C   UNL     1      22.221   2.641  19.474  1.00  0.00     0.265 C 
BRANCH  23  24
ATOM     24  O   UNL     1      21.140   2.143  20.202  1.00  0.00    -0.488 OA
BRANCH  24  25
ATOM     25  C   UNL     1      19.817   2.299  19.921  1.00  0.00     0.132 A 
ATOM     26  C   UNL     1      18.947   2.952  20.755  1.00  0.00     0.081 A 
ATOM     27  C   UNL     1      19.335   1.774  18.748  1.00  0.00     0.047 A 
ATOM     28  C   UNL     1      17.620   3.084  20.427  1.00  0.00     0.018 A 
ATOM     29  C   UNL     1      18.005   1.886  18.382  1.00  0.00     0.004 A 
ATOM     30  C   UNL     1      17.160   2.551  19.244  1.00  0.00     0.001 A 
BRANCH  26  31
ATOM     31  C   UNL     1      19.437   3.519  22.010  1.00  0.00     0.252 C 
ATOM     32  N   UNL     1      20.402   2.888  22.820  1.00  0.00    -0.365 N 
ATOM     33  O   UNL     1      18.960   4.624  22.370  1.00  0.00    -0.269 OA
ATOM     34  H   UNL     1      21.429   2.971  22.665  1.00  0.00     0.159 HD
ATOM     35  H   UNL     1      20.097   2.300  23.626  1.00  0.00     0.159 HD
ENDBRANCH  26  31
ENDBRANCH  24  25
ENDBRANCH  23  24
ENDBRANCH   5  23
TORSDOF 9
ENDMDL
MODEL 8
REMARK VINA RESULT:    -9.715      2.112      2.993
REMARK INTER + INTRA:         -16.353
REMARK INTER:                 -15.210
REMARK INTRA:                  -1.143
REMARK UNBOUND:                -1.526
REMARK SMILES NC(=O)c1ccccc1OCc1cccc(C(=O)NCCNC(=O)c2ncc[nH]2)c1
REMARK SMILES IDX 16 1 15 2 14 3 13 4 12 5 30 6 17 7 18 8 19 9 20 11 21 12
REMARK SMILES IDX 22 13 23 14 24 16 25 17 26 18 29 19 27 20 28 21 11 23 10 24
REMARK SMILES IDX 9 25 4 26 8 27 5 28 7 29 6 30 2 31 1 32 3 33
REMARK H PARENT 19 10 22 15 29 22 1 34 1 35
REMARK Flexibility Score: inf
ROOT
ATOM      1  C   UNL     1      21.776  -1.418  17.040  1.00  0.00     0.040 A 
ATOM      2  C   UNL     1      23.049  -1.866  16.777  1.00  0.00     0.014 A 
ATOM      3  C   UNL     1      24.105  -1.036  17.090  1.00  0.00     0.001 A 
ATOM      4  C   UNL     1      23.872   0.188  17.641  1.00  0.00     0.007 A 
ATOM      5  C   UNL     1      22.571   0.645  17.909  1.00  0.00    -0.010 A 
ATOM      6  C   UNL     1      21.513  -0.181  17.598  1.00  0.00     0.021 A 
ENDROOT
BRANCH   1   7
ATOM      7  C   UNL     1      20.629  -2.300  16.707  1.00  0.00     0.251 C 
ATOM      8  O   UNL     1      20.911  -3.452  16.319  1.00  0.00    -0.269 OA
ATOM      9  N   UNL     1      19.319  -1.860  16.826  1.00  0.00    -0.350 N 
ATOM     10  H   UNL     1      19.200  -0.837  17.199  1.00  0.00     0.163 HD
BRANCH   9  11
ATOM     11  C   UNL     1      18.111  -2.529  16.537  1.00  0.00     0.137 C 
BRANCH  11  12
ATOM     12  C   UNL     1      17.474  -2.342  15.231  1.00  0.00     0.137 C 
BRANCH  12  13
ATOM     13  N   UNL     1      17.420  -3.343  14.247  1.00  0.00    -0.348 N 
ATOM     14  C   UNL     1      16.144  -4.041  14.070  1.00  0.00     0.287 C 
ATOM     15  H   UNL     1      18.176  -3.659  13.645  1.00  0.00     0.163 HD
ATOM     16  O   UNL     1      15.159  -3.755  14.778  1.00  0.00    -0.266 OA
BRANCH  14  17
ATOM     17  C   UNL     1      16.030  -5.070  13.061  1.00  0.00     0.196 A 
ATOM     18  N   UNL     1      16.766  -6.186  12.996  1.00  0.00    -0.232 NA
ATOM     19  N   UNL     1      15.183  -5.089  12.025  1.00  0.00    -0.341 N 
ATOM     20  C   UNL     1      16.399  -6.917  11.931  1.00  0.00     0.131 A 
ATOM     21  C   UNL     1      15.371  -6.202  11.302  1.00  0.00     0.104 A 
ATOM     22  H   UNL     1      14.471  -4.350  11.799  1.00  0.00     0.168 HD
ENDBRANCH  14  17
ENDBRANCH  12  13
ENDBRANCH  11  12
ENDBRANCH   9  11
ENDBRANCH   1   7
BRANCH   5  23
ATOM     23  C   UNL     1      22.445   1.984  18.502  1.00  0.00     0.265 C 
BRANCH  23  24
ATOM     24  O   UNL     1      21.139   2.389  18.774  1.00  0.00    -0.488 OA
BRANCH  24  25
ATOM     25  C   UNL     1      20.579   2.600  19.997  1.00  0.00     0.132 A 
ATOM     26  C   UNL     1      19.275   2.293  20.287  1.00  0.00     0.081 A 
ATOM     27  C   UNL     1      21.361   3.148  20.983  1.00  0.00     0.047 A 
ATOM     28  C   UNL     1      18.757   2.523  21.538  1.00  0.00     0.018 A 
ATOM     29  C   UNL     1      20.875   3.395  22.256  1.00  0.00     0.004 A 
ATOM     30  C   UNL     1      19.560   3.072  22.511  1.00  0.00     0.001 A 
BRANCH  26  31
ATOM     31  C   UNL     1      18.423   1.709  19.252  1.00  0.00     0.252 C 
ATOM     32  N   UNL     1      17.286   2.357  18.729  1.00  0.00    -0.365 N 
ATOM     33  O   UNL     1      18.734   0.572  18.820  1.00  0.00    -0.269 OA
ATOM     34  H   UNL     1      17.324   3.058  17.959  1.00  0.00     0.159 HD
ATOM     35  H   UNL     1      16.342   2.140  19.117  1.00  0.00     0.159 HD
ENDBRANCH  26  31
ENDBRANCH  24  25
ENDBRANCH  23  24
ENDBRANCH   5  23
TORSDOF 9
ENDMDL
MODEL 9
REMARK VINA RESULT:    -9.661      3.121      6.631
REMARK INTER + INTRA:         -16.271
REMARK INTER:                 -14.115
REMARK INTRA:                  -2.156
REMARK UNBOUND:                -1.526
REMARK SMILES NC(=O)c1ccccc1OCc1cccc(C(=O)NCCNC(=O)c2ncc[nH]2)c1
REMARK SMILES IDX 16 1 15 2 14 3 13 4 12 5 30 6 17 7 18 8 19 9 20 11 21 12
REMARK SMILES IDX 22 13 23 14 24 16 25 17 26 18 29 19 27 20 28 21 11 23 10 24
REMARK SMILES IDX 9 25 4 26 8 27 5 28 7 29 6 30 2 31 1 32 3 33
REMARK H PARENT 19 10 22 15 29 22 1 34 1 35
REMARK Flexibility Score: inf
ROOT
ATOM      1  C   UNL     1      21.609   2.780  20.356  1.00  0.00     0.040 A 
ATOM      2  C   UNL     1      21.337   3.004  21.685  1.00  0.00     0.014 A 
ATOM      3  C   UNL     1      20.050   2.784  22.129  1.00  0.00     0.001 A 
ATOM      4  C   UNL     1      19.091   2.358  21.259  1.00  0.00     0.007 A 
ATOM      5  C   UNL     1      19.371   2.130  19.901  1.00  0.00    -0.010 A 
ATOM      6  C   UNL     1      20.656   2.348  19.454  1.00  0.00     0.021 A 
ENDROOT
BRANCH   1   7
ATOM      7  C   UNL     1      22.991   3.015  19.864  1.00  0.00     0.251 C 
ATOM      8  O   UNL     1      23.489   4.129  20.123  1.00  0.00    -0.269 OA
ATOM      9  N   UNL     1      23.683   2.041  19.159  1.00  0.00    -0.350 N 
ATOM     10  H   UNL     1      23.148   1.097  19.015  1.00  0.00     0.163 HD
BRANCH   9  11
ATOM     11  C   UNL     1      24.975   2.082  18.593  1.00  0.00     0.137 C 
BRANCH  11  12
ATOM     12  C   UNL     1      25.388   1.036  17.656  1.00  0.00     0.137 C 
BRANCH  12  13
ATOM     13  N   UNL     1      24.730   0.783  16.440  1.00  0.00    -0.348 N 
ATOM     14  C   UNL     1      23.632  -0.186  16.461  1.00  0.00     0.287 C 
ATOM     15  H   UNL     1      24.940   1.184  15.529  1.00  0.00     0.163 HD
ATOM     16  O   UNL     1      23.312  -0.763  17.519  1.00  0.00    -0.266 OA
BRANCH  14  17
ATOM     17  C   UNL     1      22.913  -0.474  15.240  1.00  0.00     0.196 A 
ATOM     18  N   UNL     1      21.723   0.035  14.895  1.00  0.00    -0.232 NA
ATOM     19  N   UNL     1      23.300  -1.290  14.253  1.00  0.00    -0.341 N 
ATOM     20  C   UNL     1      21.347  -0.447  13.700  1.00  0.00     0.131 A 
ATOM     21  C   UNL     1      22.373  -1.308  13.285  1.00  0.00     0.104 A 
ATOM     22  H   UNL     1      24.194  -1.841  14.226  1.00  0.00     0.168 HD
ENDBRANCH  14  17
ENDBRANCH  12  13
ENDBRANCH  11  12
ENDBRANCH   9  11
ENDBRANCH   1   7
BRANCH   5  23
ATOM     23  C   UNL     1      18.254   1.674  19.060  1.00  0.00     0.265 C 
BRANCH  23  24
ATOM     24  O   UNL     1      18.602   1.329  17.755  1.00  0.00    -0.488 OA
BRANCH  24  25
ATOM     25  C   UNL     1      18.772   0.074  17.253  1.00  0.00     0.132 A 
ATOM     26  C   UNL     1      17.970  -0.456  16.276  1.00  0.00     0.081 A 
ATOM     27  C   UNL     1      19.795  -0.692  17.752  1.00  0.00     0.047 A 
ATOM     28  C   UNL     1      18.182  -1.727  15.801  1.00  0.00     0.018 A 
ATOM     29  C   UNL     1      20.042  -1.977  17.299  1.00  0.00     0.004 A 
ATOM     30  C   UNL     1      19.216  -2.476  16.316  1.00  0.00     0.001 A 
BRANCH  26  31
ATOM     31  C   UNL     1      16.872   0.341  15.729  1.00  0.00     0.252 C 
ATOM     32  N   UNL     1      17.005   1.697  15.370  1.00  0.00    -0.365 N 
ATOM     33  O   UNL     1      15.763  -0.228  15.582  1.00  0.00    -0.269 OA
ATOM     34  H   UNL     1      17.372   2.017  14.448  1.00  0.00     0.159 HD
ATOM     35  H   UNL     1      16.727   2.442  16.046  1.00  0.00     0.159 HD
ENDBRANCH  26  31
ENDBRANCH  24  25
ENDBRANCH  23  24
ENDBRANCH   5  23
TORSDOF 9
ENDMDL
MODEL 10
REMARK VINA RESULT:    -9.661      3.560      6.998
REMARK INTER + INTRA:         -16.271
REMARK INTER:                 -13.501
REMARK INTRA:                  -2.770
REMARK UNBOUND:                -1.526
REMARK SMILES NC(=O)c1ccccc1OCc1cccc(C(=O)NCCNC(=O)c2ncc[nH]2)c1
REMARK SMILES IDX 16 1 15 2 14 3 13 4 12 5 30 6 17 7 18 8 19 9 20 11 21 12
REMARK SMILES IDX 22 13 23 14 24 16 25 17 26 18 29 19 27 20 28 21 11 23 10 24
REMARK SMILES IDX 9 25 4 26 8 27 5 28 7 29 6 30 2 31 1 32 3 33
REMARK H PARENT 19 10 22 15 29 22 1 34 1 35
REMARK Flexibility Score: inf
ROOT
ATOM      1  C   UNL     1      21.732   2.695  20.195  1.00  0.00     0.040 A 
ATOM      2  C   UNL     1      21.434   2.919  21.518  1.00  0.00     0.014 A 
ATOM      3  C   UNL     1      20.129   2.743  21.927  1.00  0.00     0.001 A 
ATOM      4  C   UNL     1      19.178   2.361  21.028  1.00  0.00     0.007 A 
ATOM      5  C   UNL     1      19.484   2.133  19.676  1.00  0.00    -0.010 A 
ATOM      6  C   UNL     1      20.787   2.307  19.265  1.00  0.00     0.021 A 
ENDROOT
BRANCH   1   7
ATOM      7  C   UNL     1      23.134   2.882  19.740  1.00  0.00     0.251 C 
ATOM      8  O   UNL     1      23.635   4.007  19.938  1.00  0.00    -0.269 OA
ATOM      9  N   UNL     1      23.841   1.854  19.133  1.00  0.00    -0.350 N 
ATOM     10  H   UNL     1      23.300   0.907  19.037  1.00  0.00     0.163 HD
BRANCH   9  11
ATOM     11  C   UNL     1      25.153   1.843  18.615  1.00  0.00     0.137 C 
BRANCH  11  12
ATOM     12  C   UNL     1      25.381   2.191  17.212  1.00  0.00     0.137 C 
BRANCH  12  13
ATOM     13  N   UNL     1      25.144   1.305  16.147  1.00  0.00    -0.348 N 
ATOM     14  C   UNL     1      23.783   1.255  15.607  1.00  0.00     0.287 C 
ATOM     15  H   UNL     1      25.809   0.672  15.710  1.00  0.00     0.163 HD
ATOM     16  O   UNL     1      22.880   1.965  16.089  1.00  0.00    -0.266 OA
BRANCH  14  17
ATOM     17  C   UNL     1      23.488   0.370  14.502  1.00  0.00     0.196 A 
ATOM     18  N   UNL     1      23.212   0.750  13.249  1.00  0.00    -0.232 NA
ATOM     19  N   UNL     1      23.437  -0.967  14.535  1.00  0.00    -0.341 N 
ATOM     20  C   UNL     1      22.984  -0.329  12.481  1.00  0.00     0.131 A 
ATOM     21  C   UNL     1      23.130  -1.443  13.320  1.00  0.00     0.104 A 
ATOM     22  H   UNL     1      23.608  -1.568  15.379  1.00  0.00     0.168 HD
ENDBRANCH  14  17
ENDBRANCH  12  13
ENDBRANCH  11  12
ENDBRANCH   9  11
ENDBRANCH   1   7
BRANCH   5  23
ATOM     23  C   UNL     1      18.373   1.727  18.803  1.00  0.00     0.265 C 
BRANCH  23  24
ATOM     24  O   UNL     1      18.676   0.712  17.897  1.00  0.00    -0.488 OA
BRANCH  24  25
ATOM     25  C   UNL     1      18.769   0.818  16.542  1.00  0.00     0.132 A 
ATOM     26  C   UNL     1      19.688   0.124  15.798  1.00  0.00     0.081 A 
ATOM     27  C   UNL     1      17.901   1.662  15.896  1.00  0.00     0.047 A 
ATOM     28  C   UNL     1      19.741   0.264  14.433  1.00  0.00     0.018 A 
ATOM     29  C   UNL     1      17.923   1.830  14.522  1.00  0.00     0.004 A 
ATOM     30  C   UNL     1      18.860   1.115  13.807  1.00  0.00     0.001 A 
BRANCH  26  31
ATOM     31  C   UNL     1      20.623  -0.781  16.465  1.00  0.00     0.252 C 
ATOM     32  N   UNL     1      21.361  -0.424  17.611  1.00  0.00    -0.365 N 
ATOM     33  O   UNL     1      20.765  -1.929  15.977  1.00  0.00    -0.269 OA
ATOM     34  H   UNL     1      20.987  -0.488  18.582  1.00  0.00     0.159 HD
ATOM     35  H   UNL     1      22.339  -0.073  17.509  1.00  0.00     0.159 HD
ENDBRANCH  26  31
ENDBRANCH  24  25
ENDBRANCH  23  24
ENDBRANCH   5  23
TORSDOF 9
ENDMDL
