MODEL 1
REMARK VINA RESULT:   -11.001      0.000      0.000
REMARK INTER + INTRA:         -17.917
REMARK INTER:                 -16.789
REMARK INTRA:                  -1.127
REMARK UNBOUND:                -1.127
REMARK SMILES NC(=O)c1ccccc1OCc1cccc(C(=O)NCCNC(=O)c2ncc[nH]2)c1
REMARK SMILES IDX 16 1 15 2 14 3 13 4 12 5 30 6 17 7 18 8 19 9 20 11 21 12
REMARK SMILES IDX 22 13 23 14 24 16 25 17 26 18 29 19 27 20 28 21 11 23 10 24
REMARK SMILES IDX 9 25 4 26 8 27 5 28 7 29 6 30 2 31 1 32 3 33
REMARK H PARENT 19 10 22 15 29 22 1 34 1 35
REMARK Flexibility Score: inf
ROOT
ATOM      1  C   UNL     1      20.243  -1.970  17.397  1.00  0.00     0.040 A 
ATOM      2  C   UNL     1      21.546  -2.358  17.061  1.00  0.00     0.014 A 
ATOM      3  C   UNL     1      22.589  -1.470  16.938  1.00  0.00     0.001 A 
ATOM      4  C   UNL     1      22.305  -0.140  17.166  1.00  0.00     0.007 A 
ATOM      5  C   UNL     1      21.053   0.289  17.497  1.00  0.00    -0.010 A 
ATOM      6  C   UNL     1      20.011  -0.640  17.613  1.00  0.00     0.021 A 
ENDROOT
BRANCH   1   7
ATOM      7  C   UNL     1      19.183  -2.940  17.517  1.00  0.00     0.251 C 
ATOM      8  O   UNL     1      18.855  -3.311  18.664  1.00  0.00    -0.269 OA
ATOM      9  N   UNL     1      18.532  -3.459  16.396  1.00  0.00    -0.350 N 
ATOM     10  H   UNL     1      18.779  -3.183  15.399  1.00  0.00     0.163 HD
BRANCH   9  11
ATOM     11  C   UNL     1      17.452  -4.439  16.575  1.00  0.00     0.137 C 
BRANCH  11  12
ATOM     12  C   UNL     1      16.256  -3.982  15.776  1.00  0.00     0.137 C 
BRANCH  12  13
ATOM     13  N   UNL     1      16.699  -3.067  14.752  1.00  0.00    -0.348 N 
ATOM     14  C   UNL     1      16.137  -1.798  14.636  1.00  0.00     0.287 C 
ATOM     15  H   UNL     1      17.458  -3.350  14.076  1.00  0.00     0.163 HD
ATOM     16  O   UNL     1      15.225  -1.416  15.429  1.00  0.00    -0.266 OA
BRANCH  14  17
ATOM     17  C   UNL     1      16.591  -0.874  13.586  1.00  0.00     0.196 A 
ATOM     18  N   UNL     1      16.165   0.365  13.376  1.00  0.00    -0.232 NA
ATOM     19  N   UNL     1      17.517  -1.121  12.652  1.00  0.00    -0.341 N 
ATOM     20  C   UNL     1      16.800   0.922  12.324  1.00  0.00     0.131 A 
ATOM     21  C   UNL     1      17.667  -0.051  11.871  1.00  0.00     0.104 A 
ATOM     22  H   UNL     1      18.045  -2.013  12.545  1.00  0.00     0.168 HD
ENDBRANCH  14  17
ENDBRANCH  12  13
ENDBRANCH  11  12
ENDBRANCH   9  11
ENDBRANCH   1   7
BRANCH   5  23
ATOM     23  C   UNL     1      20.704   1.706  17.749  1.00  0.00     0.265 C 
BRANCH  23  24
ATOM     24  O   UNL     1      19.740   1.917  18.718  1.00  0.00    -0.488 OA
BRANCH  24  25
ATOM     25  C   UNL     1      19.957   2.411  20.006  1.00  0.00     0.132 A 
ATOM     26  C   UNL     1      18.882   2.679  20.833  1.00  0.00     0.081 A 
ATOM     27  C   UNL     1      21.216   2.653  20.510  1.00  0.00     0.047 A 
ATOM     28  C   UNL     1      19.006   3.162  22.102  1.00  0.00     0.018 A 
ATOM     29  C   UNL     1      21.372   3.142  21.793  1.00  0.00     0.004 A 
ATOM     30  C   UNL     1      20.281   3.403  22.601  1.00  0.00     0.001 A 
BRANCH  26  31
ATOM     31  C   UNL     1      17.539   2.424  20.301  1.00  0.00     0.252 C 
ATOM     32  N   UNL     1      17.299   2.398  18.895  1.00  0.00    -0.365 N 
ATOM     33  O   UNL     1      16.549   2.217  21.051  1.00  0.00    -0.269 OA
ATOM     34  H   UNL     1      17.186   1.489  18.401  1.00  0.00     0.159 HD
ATOM     35  H   UNL     1      17.241   3.302  18.400  1.00  0.00     0.159 HD
ENDBRANCH  26  31
ENDBRANCH  24  25
ENDBRANCH  23  24
ENDBRANCH   5  23
TORSDOF 9
ENDMDL
MODEL 2
REMARK VINA RESULT:   -10.866      2.479      3.096
REMARK INTER + INTRA:         -17.710
REMARK INTER:                 -16.697
REMARK INTRA:                  -1.012
REMARK UNBOUND:                -1.127
REMARK SMILES NC(=O)c1ccccc1OCc1cccc(C(=O)NCCNC(=O)c2ncc[nH]2)c1
REMARK SMILES IDX 16 1 15 2 14 3 13 4 12 5 30 6 17 7 18 8 19 9 20 11 21 12
REMARK SMILES IDX 22 13 23 14 24 16 25 17 26 18 29 19 27 20 28 21 11 23 10 24
REMARK SMILES IDX 9 25 4 26 8 27 5 28 7 29 6 30 2 31 1 32 3 33
REMARK H PARENT 19 10 22 15 29 22 1 34 1 35
REMARK Flexibility Score: inf
ROOT
ATOM      1  C   UNL     1      19.883  -2.137  17.507  1.00  0.00     0.040 A 
ATOM      2  C   UNL     1      21.164  -2.536  17.107  1.00  0.00     0.014 A 
ATOM      3  C   UNL     1      22.202  -1.654  16.910  1.00  0.00     0.001 A 
ATOM      4  C   UNL     1      21.934  -0.320  17.127  1.00  0.00     0.007 A 
ATOM      5  C   UNL     1      20.703   0.120  17.518  1.00  0.00    -0.010 A 
ATOM      6  C   UNL     1      19.667  -0.801  17.710  1.00  0.00     0.021 A 
ENDROOT
BRANCH   1   7
ATOM      7  C   UNL     1      18.828  -3.100  17.704  1.00  0.00     0.251 C 
ATOM      8  O   UNL     1      18.586  -3.473  18.871  1.00  0.00    -0.269 OA
ATOM      9  N   UNL     1      18.091  -3.611  16.633  1.00  0.00    -0.350 N 
ATOM     10  H   UNL     1      18.265  -3.333  15.621  1.00  0.00     0.163 HD
BRANCH   9  11
ATOM     11  C   UNL     1      17.021  -4.584  16.890  1.00  0.00     0.137 C 
BRANCH  11  12
ATOM     12  C   UNL     1      15.853  -4.257  15.994  1.00  0.00     0.137 C 
BRANCH  12  13
ATOM     13  N   UNL     1      16.128  -4.752  14.666  1.00  0.00    -0.348 N 
ATOM     14  C   UNL     1      15.543  -5.930  14.208  1.00  0.00     0.287 C 
ATOM     15  H   UNL     1      16.778  -4.224  14.024  1.00  0.00     0.163 HD
ATOM     16  O   UNL     1      14.753  -6.593  14.944  1.00  0.00    -0.266 OA
BRANCH  14  17
ATOM     17  C   UNL     1      15.832  -6.429  12.856  1.00  0.00     0.196 A 
ATOM     18  N   UNL     1      15.032  -6.380  11.799  1.00  0.00    -0.232 NA
ATOM     19  N   UNL     1      16.960  -7.027  12.451  1.00  0.00    -0.341 N 
ATOM     20  C   UNL     1      15.622  -6.934  10.719  1.00  0.00     0.131 A 
ATOM     21  C   UNL     1      16.863  -7.345  11.159  1.00  0.00     0.104 A 
ATOM     22  H   UNL     1      17.792  -7.218  13.049  1.00  0.00     0.168 HD
ENDBRANCH  14  17
ENDBRANCH  12  13
ENDBRANCH  11  12
ENDBRANCH   9  11
ENDBRANCH   1   7
BRANCH   5  23
ATOM     23  C   UNL     1      20.373   1.543  17.763  1.00  0.00     0.265 C 
BRANCH  23  24
ATOM     24  O   UNL     1      19.519   1.782  18.824  1.00  0.00    -0.488 OA
BRANCH  24  25
ATOM     25  C   UNL     1      19.875   2.307  20.069  1.00  0.00     0.132 A 
ATOM     26  C   UNL     1      18.891   2.685  20.964  1.00  0.00     0.081 A 
ATOM     27  C   UNL     1      21.184   2.474  20.462  1.00  0.00     0.047 A 
ATOM     28  C   UNL     1      19.152   3.205  22.197  1.00  0.00     0.018 A 
ATOM     29  C   UNL     1      21.477   2.999  21.706  1.00  0.00     0.004 A 
ATOM     30  C   UNL     1      20.477   3.370  22.584  1.00  0.00     0.001 A 
BRANCH  26  31
ATOM     31  C   UNL     1      17.495   2.509  20.550  1.00  0.00     0.252 C 
ATOM     32  N   UNL     1      17.091   2.756  19.204  1.00  0.00    -0.365 N 
ATOM     33  O   UNL     1      16.599   2.137  21.354  1.00  0.00    -0.269 OA
ATOM     34  H   UNL     1      16.921   1.960  18.556  1.00  0.00     0.159 HD
ATOM     35  H   UNL     1      16.977   3.738  18.909  1.00  0.00     0.159 HD
ENDBRANCH  26  31
ENDBRANCH  24  25
ENDBRANCH  23  24
ENDBRANCH   5  23
TORSDOF 9
ENDMDL
MODEL 3
REMARK VINA RESULT:   -10.515      1.613      2.228
REMARK INTER + INTRA:         -17.175
REMARK INTER:                 -15.593
REMARK INTRA:                  -1.582
REMARK UNBOUND:                -1.127
REMARK SMILES NC(=O)c1ccccc1OCc1cccc(C(=O)NCCNC(=O)c2ncc[nH]2)c1
REMARK SMILES IDX 16 1 15 2 14 3 13 4 12 5 30 6 17 7 18 8 19 9 20 11 21 12
REMARK SMILES IDX 22 13 23 14 24 16 25 17 26 18 29 19 27 20 28 21 11 23 10 24
REMARK SMILES IDX 9 25 4 26 8 27 5 28 7 29 6 30 2 31 1 32 3 33
REMARK H PARENT 19 10 22 15 29 22 1 34 1 35
REMARK Flexibility Score: inf
ROOT
ATOM      1  C   UNL     1      20.736  -1.807  17.200  1.00  0.00     0.040 A 
ATOM      2  C   UNL     1      22.028  -2.274  16.929  1.00  0.00     0.014 A 
ATOM      3  C   UNL     1      23.140  -1.465  16.939  1.00  0.00     0.001 A 
ATOM      4  C   UNL     1      22.939  -0.133  17.234  1.00  0.00     0.007 A 
ATOM      5  C   UNL     1      21.701   0.371  17.505  1.00  0.00    -0.010 A 
ATOM      6  C   UNL     1      20.588  -0.477  17.487  1.00  0.00     0.021 A 
ENDROOT
BRANCH   1   7
ATOM      7  C   UNL     1      19.601  -2.695  17.182  1.00  0.00     0.251 C 
ATOM      8  O   UNL     1      19.120  -3.053  18.277  1.00  0.00    -0.269 OA
ATOM      9  N   UNL     1      19.045  -3.152  15.985  1.00  0.00    -0.350 N 
ATOM     10  H   UNL     1      19.424  -2.885  15.028  1.00  0.00     0.163 HD
BRANCH   9  11
ATOM     11  C   UNL     1      17.883  -4.050  16.023  1.00  0.00     0.137 C 
BRANCH  11  12
ATOM     12  C   UNL     1      17.025  -3.772  14.814  1.00  0.00     0.137 C 
BRANCH  12  13
ATOM     13  N   UNL     1      17.173  -2.385  14.445  1.00  0.00    -0.348 N 
ATOM     14  C   UNL     1      16.198  -1.448  14.782  1.00  0.00     0.287 C 
ATOM     15  H   UNL     1      18.024  -2.062  13.912  1.00  0.00     0.163 HD
ATOM     16  O   UNL     1      15.161  -1.792  15.425  1.00  0.00    -0.266 OA
BRANCH  14  17
ATOM     17  C   UNL     1      16.354  -0.038  14.398  1.00  0.00     0.196 A 
ATOM     18  N   UNL     1      16.382   0.455  13.167  1.00  0.00    -0.232 NA
ATOM     19  N   UNL     1      16.496   1.003  15.228  1.00  0.00    -0.341 N 
ATOM     20  C   UNL     1      16.540   1.795  13.186  1.00  0.00     0.131 A 
ATOM     21  C   UNL     1      16.612   2.130  14.522  1.00  0.00     0.104 A 
ATOM     22  H   UNL     1      16.516   0.950  16.268  1.00  0.00     0.168 HD
ENDBRANCH  14  17
ENDBRANCH  12  13
ENDBRANCH  11  12
ENDBRANCH   9  11
ENDBRANCH   1   7
BRANCH   5  23
ATOM     23  C   UNL     1      21.440   1.794  17.826  1.00  0.00     0.265 C 
BRANCH  23  24
ATOM     24  O   UNL     1      21.138   2.059  19.149  1.00  0.00    -0.488 OA
BRANCH  24  25
ATOM     25  C   UNL     1      19.860   2.236  19.685  1.00  0.00     0.132 A 
ATOM     26  C   UNL     1      19.705   2.449  21.043  1.00  0.00     0.081 A 
ATOM     27  C   UNL     1      18.718   2.210  18.917  1.00  0.00     0.047 A 
ATOM     28  C   UNL     1      18.496   2.632  21.646  1.00  0.00     0.018 A 
ATOM     29  C   UNL     1      17.479   2.392  19.501  1.00  0.00     0.004 A 
ATOM     30  C   UNL     1      17.349   2.603  20.861  1.00  0.00     0.001 A 
BRANCH  26  31
ATOM     31  C   UNL     1      20.919   2.479  21.866  1.00  0.00     0.252 C 
ATOM     32  N   UNL     1      22.028   3.303  21.510  1.00  0.00    -0.365 N 
ATOM     33  O   UNL     1      21.037   1.787  22.912  1.00  0.00    -0.269 OA
ATOM     34  H   UNL     1      22.196   4.198  22.015  1.00  0.00     0.159 HD
ATOM     35  H   UNL     1      22.643   2.979  20.748  1.00  0.00     0.159 HD
ENDBRANCH  26  31
ENDBRANCH  24  25
ENDBRANCH  23  24
ENDBRANCH   5  23
TORSDOF 9
ENDMDL
MODEL 4
REMARK VINA RESULT:   -10.239      3.456      4.308
REMARK INTER + INTRA:         -16.753
REMARK INTER:                 -15.962
REMARK INTRA:                  -0.791
REMARK UNBOUND:                -1.127
REMARK SMILES NC(=O)c1ccccc1OCc1cccc(C(=O)NCCNC(=O)c2ncc[nH]2)c1
REMARK SMILES IDX 16 1 15 2 14 3 13 4 12 5 30 6 17 7 18 8 19 9 20 11 21 12
REMARK SMILES IDX 22 13 23 14 24 16 25 17 26 18 29 19 27 20 28 21 11 23 10 24
REMARK SMILES IDX 9 25 4 26 8 27 5 28 7 29 6 30 2 31 1 32 3 33
REMARK H PARENT 19 10 22 15 29 22 1 34 1 35
REMARK Flexibility Score: inf
ROOT
ATOM      1  C   UNL     1      17.719  -1.508  15.837  1.00  0.00     0.040 A 
ATOM      2  C   UNL     1      18.592  -2.490  16.322  1.00  0.00     0.014 A 
ATOM      3  C   UNL     1      19.674  -2.207  17.123  1.00  0.00     0.001 A 
ATOM      4  C   UNL     1      19.880  -0.883  17.447  1.00  0.00     0.007 A 
ATOM      5  C   UNL     1      19.058   0.111  17.001  1.00  0.00    -0.010 A 
ATOM      6  C   UNL     1      17.965  -0.208  16.187  1.00  0.00     0.021 A 
ENDROOT
BRANCH   1   7
ATOM      7  C   UNL     1      16.596  -1.854  15.002  1.00  0.00     0.251 C 
ATOM      8  O   UNL     1      15.467  -1.440  15.339  1.00  0.00    -0.269 OA
ATOM      9  N   UNL     1      16.748  -2.628  13.850  1.00  0.00    -0.350 N 
ATOM     10  H   UNL     1      17.685  -3.012  13.526  1.00  0.00     0.163 HD
BRANCH   9  11
ATOM     11  C   UNL     1      15.571  -2.945  13.030  1.00  0.00     0.137 C 
BRANCH  11  12
ATOM     12  C   UNL     1      15.112  -4.341  13.373  1.00  0.00     0.137 C 
BRANCH  12  13
ATOM     13  N   UNL     1      15.098  -5.138  12.170  1.00  0.00    -0.348 N 
ATOM     14  C   UNL     1      16.035  -6.150  11.972  1.00  0.00     0.287 C 
ATOM     15  H   UNL     1      14.374  -4.963  11.422  1.00  0.00     0.163 HD
ATOM     16  O   UNL     1      16.919  -6.396  12.846  1.00  0.00    -0.266 OA
BRANCH  14  17
ATOM     17  C   UNL     1      16.016  -6.953  10.741  1.00  0.00     0.196 A 
ATOM     18  N   UNL     1      17.026  -7.639  10.221  1.00  0.00    -0.232 NA
ATOM     19  N   UNL     1      14.972  -7.136   9.924  1.00  0.00    -0.341 N 
ATOM     20  C   UNL     1      16.653  -8.260   9.083  1.00  0.00     0.131 A 
ATOM     21  C   UNL     1      15.327  -7.924   8.908  1.00  0.00     0.104 A 
ATOM     22  H   UNL     1      14.022  -6.726  10.055  1.00  0.00     0.168 HD
ENDBRANCH  14  17
ENDBRANCH  12  13
ENDBRANCH  11  12
ENDBRANCH   9  11
ENDBRANCH   1   7
BRANCH   5  23
ATOM     23  C   UNL     1      19.243   1.544  17.325  1.00  0.00     0.265 C 
BRANCH  23  24
ATOM     24  O   UNL     1      18.831   1.926  18.588  1.00  0.00    -0.488 OA
BRANCH  24  25
ATOM     25  C   UNL     1      19.657   2.306  19.648  1.00  0.00     0.132 A 
ATOM     26  C   UNL     1      19.100   2.750  20.833  1.00  0.00     0.081 A 
ATOM     27  C   UNL     1      21.032   2.263  19.575  1.00  0.00     0.047 A 
ATOM     28  C   UNL     1      19.833   3.139  21.914  1.00  0.00     0.018 A 
ATOM     29  C   UNL     1      21.801   2.651  20.655  1.00  0.00     0.004 A 
ATOM     30  C   UNL     1      21.220   3.091  21.830  1.00  0.00     0.001 A 
BRANCH  26  31
ATOM     31  C   UNL     1      17.636   2.798  20.916  1.00  0.00     0.252 C 
ATOM     32  N   UNL     1      16.930   2.037  21.895  1.00  0.00    -0.365 N 
ATOM     33  O   UNL     1      16.943   3.505  20.137  1.00  0.00    -0.269 OA
ATOM     34  H   UNL     1      16.552   2.502  22.745  1.00  0.00     0.159 HD
ATOM     35  H   UNL     1      16.813   1.026  21.724  1.00  0.00     0.159 HD
ENDBRANCH  26  31
ENDBRANCH  24  25
ENDBRANCH  23  24
ENDBRANCH   5  23
TORSDOF 9
ENDMDL
MODEL 5
REMARK VINA RESULT:   -10.176      1.673      2.104
REMARK INTER + INTRA:         -16.658
REMARK INTER:                 -14.557
REMARK INTRA:                  -2.101
REMARK UNBOUND:                -1.127
REMARK SMILES NC(=O)c1ccccc1OCc1cccc(C(=O)NCCNC(=O)c2ncc[nH]2)c1
REMARK SMILES IDX 16 1 15 2 14 3 13 4 12 5 30 6 17 7 18 8 19 9 20 11 21 12
REMARK SMILES IDX 22 13 23 14 24 16 25 17 26 18 29 19 27 20 28 21 11 23 10 24
REMARK SMILES IDX 9 25 4 26 8 27 5 28 7 29 6 30 2 31 1 32 3 33
REMARK H PARENT 19 10 22 15 29 22 1 34 1 35
REMARK Flexibility Score: inf
ROOT
ATOM      1  C   UNL     1      22.220  -1.140  16.888  1.00  0.00     0.040 A 
ATOM      2  C   UNL     1      23.573  -1.450  16.707  1.00  0.00     0.014 A 
ATOM      3  C   UNL     1      24.597  -0.661  17.178  1.00  0.00     0.001 A 
ATOM      4  C   UNL     1      24.239   0.483  17.857  1.00  0.00     0.007 A 
ATOM      5  C   UNL     1      22.936   0.830  18.060  1.00  0.00    -0.010 A 
ATOM      6  C   UNL     1      21.915   0.007  17.569  1.00  0.00     0.021 A 
ENDROOT
BRANCH   1   7
ATOM      7  C   UNL     1      21.181  -2.000  16.378  1.00  0.00     0.251 C 
ATOM      8  O   UNL     1      21.195  -2.276  15.160  1.00  0.00    -0.269 OA
ATOM      9  N   UNL     1      20.183  -2.517  17.206  1.00  0.00    -0.350 N 
ATOM     10  H   UNL     1      20.122  -2.305  18.247  1.00  0.00     0.163 HD
BRANCH   9  11
ATOM     11  C   UNL     1      19.153  -3.396  16.637  1.00  0.00     0.137 C 
BRANCH  11  12
ATOM     12  C   UNL     1      17.864  -2.619  16.537  1.00  0.00     0.137 C 
BRANCH  12  13
ATOM     13  N   UNL     1      18.022  -1.575  15.553  1.00  0.00    -0.348 N 
ATOM     14  C   UNL     1      16.919  -0.867  15.079  1.00  0.00     0.287 C 
ATOM     15  H   UNL     1      18.978  -1.334  15.180  1.00  0.00     0.163 HD
ATOM     16  O   UNL     1      15.752  -1.122  15.503  1.00  0.00    -0.266 OA
BRANCH  14  17
ATOM     17  C   UNL     1      17.088   0.191  14.073  1.00  0.00     0.196 A 
ATOM     18  N   UNL     1      16.157   0.679  13.264  1.00  0.00    -0.232 NA
ATOM     19  N   UNL     1      18.218   0.853  13.795  1.00  0.00    -0.341 N 
ATOM     20  C   UNL     1      16.665   1.643  12.468  1.00  0.00     0.131 A 
ATOM     21  C   UNL     1      17.994   1.740  12.825  1.00  0.00     0.104 A 
ATOM     22  H   UNL     1      19.138   0.702  14.260  1.00  0.00     0.168 HD
ENDBRANCH  14  17
ENDBRANCH  12  13
ENDBRANCH  11  12
ENDBRANCH   9  11
ENDBRANCH   1   7
BRANCH   5  23
ATOM     23  C   UNL     1      22.508   2.050  18.784  1.00  0.00     0.265 C 
BRANCH  23  24
ATOM     24  O   UNL     1      21.160   2.348  18.702  1.00  0.00    -0.488 OA
BRANCH  24  25
ATOM     25  C   UNL     1      20.275   2.476  19.775  1.00  0.00     0.132 A 
ATOM     26  C   UNL     1      19.019   1.901  19.706  1.00  0.00     0.081 A 
ATOM     27  C   UNL     1      20.592   3.162  20.926  1.00  0.00     0.047 A 
ATOM     28  C   UNL     1      18.097   1.979  20.707  1.00  0.00     0.018 A 
ATOM     29  C   UNL     1      19.677   3.257  21.957  1.00  0.00     0.004 A 
ATOM     30  C   UNL     1      18.428   2.674  21.865  1.00  0.00     0.001 A 
BRANCH  26  31
ATOM     31  C   UNL     1      18.676   1.169  18.482  1.00  0.00     0.252 C 
ATOM     32  N   UNL     1      18.173   1.851  17.334  1.00  0.00    -0.365 N 
ATOM     33  O   UNL     1      18.808  -0.080  18.389  1.00  0.00    -0.269 OA
ATOM     34  H   UNL     1      18.797   2.035  16.522  1.00  0.00     0.159 HD
ATOM     35  H   UNL     1      17.185   2.147  17.346  1.00  0.00     0.159 HD
ENDBRANCH  26  31
ENDBRANCH  24  25
ENDBRANCH  23  24
ENDBRANCH   5  23
TORSDOF 9
ENDMDL
MODEL 6
REMARK VINA RESULT:   -10.065      3.595      7.049
REMARK INTER + INTRA:         -16.489
REMARK INTER:                 -13.680
REMARK INTRA:                  -2.808
REMARK UNBOUND:                -1.127
REMARK SMILES NC(=O)c1ccccc1OCc1cccc(C(=O)NCCNC(=O)c2ncc[nH]2)c1
REMARK SMILES IDX 16 1 15 2 14 3 13 4 12 5 30 6 17 7 18 8 19 9 20 11 21 12
REMARK SMILES IDX 22 13 23 14 24 16 25 17 26 18 29 19 27 20 28 21 11 23 10 24
REMARK SMILES IDX 9 25 4 26 8 27 5 28 7 29 6 30 2 31 1 32 3 33
REMARK H PARENT 19 10 22 15 29 22 1 34 1 35
REMARK Flexibility Score: inf
ROOT
ATOM      1  C   UNL     1      21.398   2.727  20.360  1.00  0.00     0.040 A 
ATOM      2  C   UNL     1      21.069   2.853  21.715  1.00  0.00     0.014 A 
ATOM      3  C   UNL     1      19.795   2.671  22.202  1.00  0.00     0.001 A 
ATOM      4  C   UNL     1      18.818   2.348  21.285  1.00  0.00     0.007 A 
ATOM      5  C   UNL     1      19.087   2.212  19.954  1.00  0.00    -0.010 A 
ATOM      6  C   UNL     1      20.393   2.404  19.488  1.00  0.00     0.021 A 
ENDROOT
BRANCH   1   7
ATOM      7  C   UNL     1      22.749   2.924  19.897  1.00  0.00     0.251 C 
ATOM      8  O   UNL     1      23.330   3.981  20.222  1.00  0.00    -0.269 OA
ATOM      9  N   UNL     1      23.402   1.974  19.110  1.00  0.00    -0.350 N 
ATOM     10  H   UNL     1      22.948   1.064  18.799  1.00  0.00     0.163 HD
BRANCH   9  11
ATOM     11  C   UNL     1      24.783   2.222  18.672  1.00  0.00     0.137 C 
BRANCH  11  12
ATOM     12  C   UNL     1      24.752   2.694  17.240  1.00  0.00     0.137 C 
BRANCH  12  13
ATOM     13  N   UNL     1      24.204   1.646  16.413  1.00  0.00    -0.348 N 
ATOM     14  C   UNL     1      24.250   1.734  15.024  1.00  0.00     0.287 C 
ATOM     15  H   UNL     1      23.759   0.797  16.853  1.00  0.00     0.163 HD
ATOM     16  O   UNL     1      24.778   2.735  14.453  1.00  0.00    -0.266 OA
BRANCH  14  17
ATOM     17  C   UNL     1      23.685   0.664  14.189  1.00  0.00     0.196 A 
ATOM     18  N   UNL     1      23.268   0.768  12.933  1.00  0.00    -0.232 NA
ATOM     19  N   UNL     1      23.489  -0.610  14.551  1.00  0.00    -0.341 N 
ATOM     20  C   UNL     1      22.807  -0.415  12.478  1.00  0.00     0.131 A 
ATOM     21  C   UNL     1      22.957  -1.290  13.534  1.00  0.00     0.104 A 
ATOM     22  H   UNL     1      23.714  -1.015  15.484  1.00  0.00     0.168 HD
ENDBRANCH  14  17
ENDBRANCH  12  13
ENDBRANCH  11  12
ENDBRANCH   9  11
ENDBRANCH   1   7
BRANCH   5  23
ATOM     23  C   UNL     1      18.069   1.866  18.936  1.00  0.00     0.265 C 
BRANCH  23  24
ATOM     24  O   UNL     1      18.419   0.851  18.066  1.00  0.00    -0.488 OA
BRANCH  24  25
ATOM     25  C   UNL     1      18.607   0.972  16.687  1.00  0.00     0.132 A 
ATOM     26  C   UNL     1      19.728   0.422  16.093  1.00  0.00     0.081 A 
ATOM     27  C   UNL     1      17.716   1.627  15.866  1.00  0.00     0.047 A 
ATOM     28  C   UNL     1      19.988   0.494  14.756  1.00  0.00     0.018 A 
ATOM     29  C   UNL     1      17.953   1.716  14.508  1.00  0.00     0.004 A 
ATOM     30  C   UNL     1      19.081   1.158  13.937  1.00  0.00     0.001 A 
BRANCH  26  31
ATOM     31  C   UNL     1      20.681  -0.277  16.962  1.00  0.00     0.252 C 
ATOM     32  N   UNL     1      20.314  -1.480  17.637  1.00  0.00    -0.365 N 
ATOM     33  O   UNL     1      21.852   0.146  17.150  1.00  0.00    -0.269 OA
ATOM     34  H   UNL     1      20.643  -2.400  17.279  1.00  0.00     0.159 HD
ATOM     35  H   UNL     1      19.722  -1.397  18.477  1.00  0.00     0.159 HD
ENDBRANCH  26  31
ENDBRANCH  24  25
ENDBRANCH  23  24
ENDBRANCH   5  23
TORSDOF 9
ENDMDL
MODEL 7
REMARK VINA RESULT:   -10.060      2.072      2.574
REMARK INTER + INTRA:         -16.481
REMARK INTER:                 -14.035
REMARK INTRA:                  -2.446
REMARK UNBOUND:                -1.127
REMARK SMILES NC(=O)c1ccccc1OCc1cccc(C(=O)NCCNC(=O)c2ncc[nH]2)c1
REMARK SMILES IDX 16 1 15 2 14 3 13 4 12 5 30 6 17 7 18 8 19 9 20 11 21 12
REMARK SMILES IDX 22 13 23 14 24 16 25 17 26 18 29 19 27 20 28 21 11 23 10 24
REMARK SMILES IDX 9 25 4 26 8 27 5 28 7 29 6 30 2 31 1 32 3 33
REMARK H PARENT 19 10 22 15 29 22 1 34 1 35
REMARK Flexibility Score: inf
ROOT
ATOM      1  C   UNL     1      19.793  -3.106  16.065  1.00  0.00     0.040 A 
ATOM      2  C   UNL     1      20.859  -3.504  16.881  1.00  0.00     0.014 A 
ATOM      3  C   UNL     1      21.982  -2.734  17.082  1.00  0.00     0.001 A 
ATOM      4  C   UNL     1      22.026  -1.517  16.436  1.00  0.00     0.007 A 
ATOM      5  C   UNL     1      21.013  -1.084  15.632  1.00  0.00    -0.010 A 
ATOM      6  C   UNL     1      19.883  -1.890  15.446  1.00  0.00     0.021 A 
ENDROOT
BRANCH   1   7
ATOM      7  C   UNL     1      18.635  -3.947  15.887  1.00  0.00     0.251 C 
ATOM      8  O   UNL     1      18.051  -4.363  16.910  1.00  0.00    -0.269 OA
ATOM      9  N   UNL     1      18.168  -4.296  14.619  1.00  0.00    -0.350 N 
ATOM     10  H   UNL     1      18.635  -3.976  13.718  1.00  0.00     0.163 HD
BRANCH   9  11
ATOM     11  C   UNL     1      16.979  -5.149  14.494  1.00  0.00     0.137 C 
BRANCH  11  12
ATOM     12  C   UNL     1      15.972  -4.440  13.623  1.00  0.00     0.137 C 
BRANCH  12  13
ATOM     13  N   UNL     1      16.565  -3.227  13.114  1.00  0.00    -0.348 N 
ATOM     14  C   UNL     1      16.153  -1.980  13.579  1.00  0.00     0.287 C 
ATOM     15  H   UNL     1      17.322  -3.270  12.380  1.00  0.00     0.163 HD
ATOM     16  O   UNL     1      15.250  -1.882  14.463  1.00  0.00    -0.266 OA
BRANCH  14  17
ATOM     17  C   UNL     1      16.760  -0.749  13.052  1.00  0.00     0.196 A 
ATOM     18  N   UNL     1      16.138   0.389  12.771  1.00  0.00    -0.232 NA
ATOM     19  N   UNL     1      18.052  -0.559  12.761  1.00  0.00    -0.341 N 
ATOM     20  C   UNL     1      17.006   1.310  12.303  1.00  0.00     0.131 A 
ATOM     21  C   UNL     1      18.234   0.681  12.304  1.00  0.00     0.104 A 
ATOM     22  H   UNL     1      18.808  -1.267  12.871  1.00  0.00     0.168 HD
ENDBRANCH  14  17
ENDBRANCH  12  13
ENDBRANCH  11  12
ENDBRANCH   9  11
ENDBRANCH   1   7
BRANCH   5  23
ATOM     23  C   UNL     1      21.020   0.215  14.920  1.00  0.00     0.265 C 
BRANCH  23  24
ATOM     24  O   UNL     1      20.190   1.186  15.446  1.00  0.00    -0.488 OA
BRANCH  24  25
ATOM     25  C   UNL     1      19.997   1.463  16.802  1.00  0.00     0.132 A 
ATOM     26  C   UNL     1      18.727   1.398  17.346  1.00  0.00     0.081 A 
ATOM     27  C   UNL     1      21.027   1.807  17.647  1.00  0.00     0.047 A 
ATOM     28  C   UNL     1      18.452   1.652  18.657  1.00  0.00     0.018 A 
ATOM     29  C   UNL     1      20.779   2.070  18.981  1.00  0.00     0.004 A 
ATOM     30  C   UNL     1      19.500   1.998  19.501  1.00  0.00     0.001 A 
BRANCH  26  31
ATOM     31  C   UNL     1      17.625   1.031  16.449  1.00  0.00     0.252 C 
ATOM     32  N   UNL     1      17.059   1.986  15.553  1.00  0.00    -0.365 N 
ATOM     33  O   UNL     1      17.134  -0.128  16.429  1.00  0.00    -0.269 OA
ATOM     34  H   UNL     1      17.303   1.962  14.542  1.00  0.00     0.159 HD
ATOM     35  H   UNL     1      16.409   2.686  15.944  1.00  0.00     0.159 HD
ENDBRANCH  26  31
ENDBRANCH  24  25
ENDBRANCH  23  24
ENDBRANCH   5  23
TORSDOF 9
ENDMDL
MODEL 8
REMARK VINA RESULT:   -10.047      2.164      4.207
REMARK INTER + INTRA:         -16.461
REMARK INTER:                 -15.495
REMARK INTRA:                  -0.966
REMARK UNBOUND:                -1.127
REMARK SMILES NC(=O)c1ccccc1OCc1cccc(C(=O)NCCNC(=O)c2ncc[nH]2)c1
REMARK SMILES IDX 16 1 15 2 14 3 13 4 12 5 30 6 17 7 18 8 19 9 20 11 21 12
REMARK SMILES IDX 22 13 23 14 24 16 25 17 26 18 29 19 27 20 28 21 11 23 10 24
REMARK SMILES IDX 9 25 4 26 8 27 5 28 7 29 6 30 2 31 1 32 3 33
REMARK H PARENT 19 10 22 15 29 22 1 34 1 35
REMARK Flexibility Score: inf
ROOT
ATOM      1  C   UNL     1      16.901  -0.296  14.280  1.00  0.00     0.040 A 
ATOM      2  C   UNL     1      17.103   0.920  13.617  1.00  0.00     0.014 A 
ATOM      3  C   UNL     1      17.793   1.975  14.169  1.00  0.00     0.001 A 
ATOM      4  C   UNL     1      18.298   1.792  15.439  1.00  0.00     0.007 A 
ATOM      5  C   UNL     1      18.129   0.626  16.126  1.00  0.00    -0.010 A 
ATOM      6  C   UNL     1      17.422  -0.430  15.538  1.00  0.00     0.021 A 
ENDROOT
BRANCH   1   7
ATOM      7  C   UNL     1      16.173  -1.374  13.657  1.00  0.00     0.251 C 
ATOM      8  O   UNL     1      16.483  -1.693  12.490  1.00  0.00    -0.269 OA
ATOM      9  N   UNL     1      15.150  -2.051  14.324  1.00  0.00    -0.350 N 
ATOM     10  H   UNL     1      14.843  -1.812  15.314  1.00  0.00     0.163 HD
BRANCH   9  11
ATOM     11  C   UNL     1      14.446  -3.148  13.647  1.00  0.00     0.137 C 
BRANCH  11  12
ATOM     12  C   UNL     1      14.588  -4.395  14.483  1.00  0.00     0.137 C 
BRANCH  12  13
ATOM     13  N   UNL     1      15.893  -4.399  15.100  1.00  0.00    -0.348 N 
ATOM     14  C   UNL     1      16.992  -4.947  14.443  1.00  0.00     0.287 C 
ATOM     15  H   UNL     1      16.030  -3.985  16.061  1.00  0.00     0.163 HD
ATOM     16  O   UNL     1      16.874  -5.451  13.287  1.00  0.00    -0.266 OA
BRANCH  14  17
ATOM     17  C   UNL     1      18.317  -4.951  15.082  1.00  0.00     0.196 A 
ATOM     18  N   UNL     1      19.047  -3.893  15.410  1.00  0.00    -0.232 NA
ATOM     19  N   UNL     1      19.023  -6.028  15.445  1.00  0.00    -0.341 N 
ATOM     20  C   UNL     1      20.212  -4.268  15.978  1.00  0.00     0.131 A 
ATOM     21  C   UNL     1      20.178  -5.646  15.992  1.00  0.00     0.104 A 
ATOM     22  H   UNL     1      18.723  -7.018  15.321  1.00  0.00     0.168 HD
ENDBRANCH  14  17
ENDBRANCH  12  13
ENDBRANCH  11  12
ENDBRANCH   9  11
ENDBRANCH   1   7
BRANCH   5  23
ATOM     23  C   UNL     1      18.654   0.387  17.491  1.00  0.00     0.265 C 
BRANCH  23  24
ATOM     24  O   UNL     1      18.442   1.409  18.397  1.00  0.00    -0.488 OA
BRANCH  24  25
ATOM     25  C   UNL     1      19.405   1.996  19.222  1.00  0.00     0.132 A 
ATOM     26  C   UNL     1      19.015   2.682  20.357  1.00  0.00     0.081 A 
ATOM     27  C   UNL     1      20.755   1.926  18.960  1.00  0.00     0.047 A 
ATOM     28  C   UNL     1      19.889   3.283  21.215  1.00  0.00     0.018 A 
ATOM     29  C   UNL     1      21.663   2.525  19.811  1.00  0.00     0.004 A 
ATOM     30  C   UNL     1      21.249   3.207  20.940  1.00  0.00     0.001 A 
BRANCH  26  31
ATOM     31  C   UNL     1      17.578   2.759  20.641  1.00  0.00     0.252 C 
ATOM     32  N   UNL     1      17.026   2.149  21.807  1.00  0.00    -0.365 N 
ATOM     33  O   UNL     1      16.775   3.360  19.879  1.00  0.00    -0.269 OA
ATOM     34  H   UNL     1      16.770   2.732  22.630  1.00  0.00     0.159 HD
ATOM     35  H   UNL     1      16.894   1.126  21.797  1.00  0.00     0.159 HD
ENDBRANCH  26  31
ENDBRANCH  24  25
ENDBRANCH  23  24
ENDBRANCH   5  23
TORSDOF 9
ENDMDL
MODEL 9
REMARK VINA RESULT:   -10.022      3.292      5.373
REMARK INTER + INTRA:         -16.423
REMARK INTER:                 -15.099
REMARK INTRA:                  -1.323
REMARK UNBOUND:                -1.127
REMARK SMILES NC(=O)c1ccccc1OCc1cccc(C(=O)NCCNC(=O)c2ncc[nH]2)c1
REMARK SMILES IDX 16 1 15 2 14 3 13 4 12 5 30 6 17 7 18 8 19 9 20 11 21 12
REMARK SMILES IDX 22 13 23 14 24 16 25 17 26 18 29 19 27 20 28 21 11 23 10 24
REMARK SMILES IDX 9 25 4 26 8 27 5 28 7 29 6 30 2 31 1 32 3 33
REMARK H PARENT 19 10 22 15 29 22 1 34 1 35
REMARK Flexibility Score: inf
ROOT
ATOM      1  C   UNL     1      17.366   0.342  13.349  1.00  0.00     0.040 A 
ATOM      2  C   UNL     1      16.909   1.458  12.637  1.00  0.00     0.014 A 
ATOM      3  C   UNL     1      17.612   2.638  12.554  1.00  0.00     0.001 A 
ATOM      4  C   UNL     1      18.821   2.691  13.214  1.00  0.00     0.007 A 
ATOM      5  C   UNL     1      19.310   1.631  13.920  1.00  0.00    -0.010 A 
ATOM      6  C   UNL     1      18.572   0.443  13.987  1.00  0.00     0.021 A 
ENDROOT
BRANCH   1   7
ATOM      7  C   UNL     1      16.594  -0.875  13.405  1.00  0.00     0.251 C 
ATOM      8  O   UNL     1      16.509  -1.562  12.365  1.00  0.00    -0.269 OA
ATOM      9  N   UNL     1      15.955  -1.287  14.576  1.00  0.00    -0.350 N 
ATOM     10  H   UNL     1      15.990  -0.734  15.484  1.00  0.00     0.163 HD
BRANCH   9  11
ATOM     11  C   UNL     1      15.189  -2.540  14.580  1.00  0.00     0.137 C 
BRANCH  11  12
ATOM     12  C   UNL     1      16.144  -3.684  14.814  1.00  0.00     0.137 C 
BRANCH  12  13
ATOM     13  N   UNL     1      16.265  -4.450  13.597  1.00  0.00    -0.348 N 
ATOM     14  C   UNL     1      15.532  -5.621  13.414  1.00  0.00     0.287 C 
ATOM     15  H   UNL     1      16.912  -4.131  12.827  1.00  0.00     0.163 HD
ATOM     16  O   UNL     1      14.740  -6.038  14.311  1.00  0.00    -0.266 OA
BRANCH  14  17
ATOM     17  C   UNL     1      15.664  -6.397  12.173  1.00  0.00     0.196 A 
ATOM     18  N   UNL     1      16.401  -7.485  11.987  1.00  0.00    -0.232 NA
ATOM     19  N   UNL     1      15.061  -6.143  11.005  1.00  0.00    -0.341 N 
ATOM     20  C   UNL     1      16.286  -7.936  10.721  1.00  0.00     0.131 A 
ATOM     21  C   UNL     1      15.418  -7.059  10.104  1.00  0.00     0.104 A 
ATOM     22  H   UNL     1      14.411  -5.350  10.820  1.00  0.00     0.168 HD
ENDBRANCH  14  17
ENDBRANCH  12  13
ENDBRANCH  11  12
ENDBRANCH   9  11
ENDBRANCH   1   7
BRANCH   5  23
ATOM     23  C   UNL     1      20.603   1.644  14.643  1.00  0.00     0.265 C 
BRANCH  23  24
ATOM     24  O   UNL     1      20.634   0.920  15.820  1.00  0.00    -0.488 OA
BRANCH  24  25
ATOM     25  C   UNL     1      20.248   1.376  17.083  1.00  0.00     0.132 A 
ATOM     26  C   UNL     1      21.210   1.713  18.018  1.00  0.00     0.081 A 
ATOM     27  C   UNL     1      18.930   1.513  17.457  1.00  0.00     0.047 A 
ATOM     28  C   UNL     1      20.920   2.166  19.271  1.00  0.00     0.018 A 
ATOM     29  C   UNL     1      18.606   1.970  18.720  1.00  0.00     0.004 A 
ATOM     30  C   UNL     1      19.586   2.300  19.638  1.00  0.00     0.001 A 
BRANCH  26  31
ATOM     31  C   UNL     1      22.616   1.569  17.625  1.00  0.00     0.252 C 
ATOM     32  N   UNL     1      23.294   2.613  16.927  1.00  0.00    -0.365 N 
ATOM     33  O   UNL     1      23.281   0.531  17.882  1.00  0.00    -0.269 OA
ATOM     34  H   UNL     1      23.958   3.234  17.433  1.00  0.00     0.159 HD
ATOM     35  H   UNL     1      23.100   2.722  15.919  1.00  0.00     0.159 HD
ENDBRANCH  26  31
ENDBRANCH  24  25
ENDBRANCH  23  24
ENDBRANCH   5  23
TORSDOF 9
ENDMDL
MODEL 10
REMARK VINA RESULT:    -9.992      2.773      5.437
REMARK INTER + INTRA:         -16.377
REMARK INTER:                 -15.059
REMARK INTRA:                  -1.318
REMARK UNBOUND:                -1.127
REMARK SMILES NC(=O)c1ccccc1OCc1cccc(C(=O)NCCNC(=O)c2ncc[nH]2)c1
REMARK SMILES IDX 16 1 15 2 14 3 13 4 12 5 30 6 17 7 18 8 19 9 20 11 21 12
REMARK SMILES IDX 22 13 23 14 24 16 25 17 26 18 29 19 27 20 28 21 11 23 10 24
REMARK SMILES IDX 9 25 4 26 8 27 5 28 7 29 6 30 2 31 1 32 3 33
REMARK H PARENT 19 10 22 15 29 22 1 34 1 35
REMARK Flexibility Score: inf
ROOT
ATOM      1  C   UNL     1      18.221   1.766  17.632  1.00  0.00     0.040 A 
ATOM      2  C   UNL     1      17.304   2.081  18.643  1.00  0.00     0.014 A 
ATOM      3  C   UNL     1      17.680   2.441  19.916  1.00  0.00     0.001 A 
ATOM      4  C   UNL     1      19.032   2.485  20.178  1.00  0.00     0.007 A 
ATOM      5  C   UNL     1      19.965   2.188  19.228  1.00  0.00    -0.010 A 
ATOM      6  C   UNL     1      19.552   1.824  17.941  1.00  0.00     0.021 A 
ENDROOT
BRANCH   1   7
ATOM      7  C   UNL     1      17.778   1.398  16.311  1.00  0.00     0.251 C 
ATOM      8  O   UNL     1      16.730   0.726  16.210  1.00  0.00    -0.269 OA
ATOM      9  N   UNL     1      18.488   1.771  15.167  1.00  0.00    -0.350 N 
ATOM     10  H   UNL     1      19.390   2.334  15.200  1.00  0.00     0.163 HD
BRANCH   9  11
ATOM     11  C   UNL     1      17.988   1.376  13.844  1.00  0.00     0.137 C 
BRANCH  11  12
ATOM     12  C   UNL     1      18.685   0.103  13.431  1.00  0.00     0.137 C 
BRANCH  12  13
ATOM     13  N   UNL     1      17.832  -1.019  13.741  1.00  0.00    -0.348 N 
ATOM     14  C   UNL     1      16.875  -1.462  12.831  1.00  0.00     0.287 C 
ATOM     15  H   UNL     1      17.924  -1.520  14.664  1.00  0.00     0.163 HD
ATOM     16  O   UNL     1      16.733  -0.891  11.708  1.00  0.00    -0.266 OA
BRANCH  14  17
ATOM     17  C   UNL     1      16.007  -2.603  13.156  1.00  0.00     0.196 A 
ATOM     18  N   UNL     1      14.741  -2.555  13.551  1.00  0.00    -0.232 NA
ATOM     19  N   UNL     1      16.343  -3.898  13.112  1.00  0.00    -0.341 N 
ATOM     20  C   UNL     1      14.254  -3.795  13.763  1.00  0.00     0.131 A 
ATOM     21  C   UNL     1      15.300  -4.647  13.475  1.00  0.00     0.104 A 
ATOM     22  H   UNL     1      17.276  -4.272  12.838  1.00  0.00     0.168 HD
ENDBRANCH  14  17
ENDBRANCH  12  13
ENDBRANCH  11  12
ENDBRANCH   9  11
ENDBRANCH   1   7
BRANCH   5  23
ATOM     23  C   UNL     1      21.427   2.222  19.466  1.00  0.00     0.265 C 
BRANCH  23  24
ATOM     24  O   UNL     1      22.216   2.132  18.334  1.00  0.00    -0.488 OA
BRANCH  24  25
ATOM     25  C   UNL     1      22.902   0.999  17.892  1.00  0.00     0.132 A 
ATOM     26  C   UNL     1      24.280   1.025  17.783  1.00  0.00     0.081 A 
ATOM     27  C   UNL     1      22.265  -0.173  17.550  1.00  0.00     0.047 A 
ATOM     28  C   UNL     1      25.025  -0.036  17.361  1.00  0.00     0.018 A 
ATOM     29  C   UNL     1      22.994  -1.264  17.119  1.00  0.00     0.004 A 
ATOM     30  C   UNL     1      24.372  -1.214  17.018  1.00  0.00     0.001 A 
BRANCH  26  31
ATOM     31  C   UNL     1      24.964   2.271  18.146  1.00  0.00     0.252 C 
ATOM     32  N   UNL     1      25.046   2.695  19.507  1.00  0.00    -0.365 N 
ATOM     33  O   UNL     1      25.505   3.015  17.285  1.00  0.00    -0.269 OA
ATOM     34  H   UNL     1      25.931   2.572  20.039  1.00  0.00     0.159 HD
ATOM     35  H   UNL     1      24.206   3.120  19.928  1.00  0.00     0.159 HD
ENDBRANCH  26  31
ENDBRANCH  24  25
ENDBRANCH  23  24
ENDBRANCH   5  23
TORSDOF 9
ENDMDL
