MODEL 1
REMARK VINA RESULT:   -11.002      0.000      0.000
REMARK INTER + INTRA:         -18.367
REMARK INTER:                 -16.791
REMARK INTRA:                  -1.576
REMARK UNBOUND:                -1.576
REMARK SMILES Cc1cc(C(=O)NCCNC(=O)c2cccc(COc3ccccc3C(N)=O)c2)[nH]n1
REMARK SMILES IDX 13 1 14 2 15 3 16 4 17 5 29 6 11 7 12 8 10 9 9 11 8 12 7 13
REMARK SMILES IDX 5 14 6 16 4 17 3 18 30 19 2 20 31 21 1 23 18 24 19 25 20 26
REMARK SMILES IDX 25 27 21 28 24 29 22 30 23 31 26 32 27 33 28 34
REMARK H PARENT 10 10 7 15 30 22 27 35 27 36
REMARK Flexibility Score: inf
ROOT
ATOM      1  C   UNL     1      20.815  -1.863  17.190  1.00  0.00     0.040 A 
ATOM      2  C   UNL     1      22.185  -1.921  17.108  1.00  0.00     0.014 A 
ATOM      3  C   UNL     1      22.993  -0.812  17.230  1.00  0.00     0.001 A 
ATOM      4  C   UNL     1      22.440   0.426  17.446  1.00  0.00     0.007 A 
ATOM      5  C   UNL     1      21.067   0.525  17.536  1.00  0.00    -0.010 A 
ATOM      6  C   UNL     1      20.281  -0.593  17.411  1.00  0.00     0.021 A 
ENDROOT
BRANCH   1   7
ATOM      7  C   UNL     1      19.917  -3.003  17.082  1.00  0.00     0.251 C 
ATOM      8  O   UNL     1      19.252  -3.313  18.110  1.00  0.00    -0.269 OA
ATOM      9  N   UNL     1      19.820  -3.710  15.868  1.00  0.00    -0.350 N 
ATOM     10  H   UNL     1      20.381  -3.427  15.053  1.00  0.00     0.163 HD
BRANCH   9  11
ATOM     11  C   UNL     1      18.934  -4.846  15.745  1.00  0.00     0.137 C 
BRANCH  11  12
ATOM     12  C   UNL     1      17.738  -4.531  14.875  1.00  0.00     0.137 C 
BRANCH  12  13
ATOM     13  N   UNL     1      17.664  -3.171  14.455  1.00  0.00    -0.349 N 
ATOM     14  C   UNL     1      16.876  -2.179  15.091  1.00  0.00     0.269 C 
ATOM     15  H   UNL     1      18.226  -2.846  13.611  1.00  0.00     0.163 HD
ATOM     16  O   UNL     1      16.185  -2.489  16.094  1.00  0.00    -0.268 OA
BRANCH  14  17
ATOM     17  C   UNL     1      16.828  -0.799  14.631  1.00  0.00     0.123 A 
ATOM     18  C   UNL     1      17.388  -0.256  13.497  1.00  0.00     0.058 A 
ATOM     19  N   UNL     1      16.208   0.254  15.239  1.00  0.00    -0.273 N 
ATOM     20  C   UNL     1      17.107   1.093  13.428  1.00  0.00     0.060 A 
ATOM     21  N   UNL     1      16.375   1.348  14.534  1.00  0.00    -0.180 NA
ATOM     22  H   UNL     1      15.681   0.190  16.132  1.00  0.00     0.190 HD
ATOM     23  C   UNL     1      17.541   2.017  12.349  1.00  0.00     0.069 C 
ENDBRANCH  14  17
ENDBRANCH  12  13
ENDBRANCH  11  12
ENDBRANCH   9  11
ENDBRANCH   1   7
BRANCH   5  24
ATOM     24  C   UNL     1      20.374   1.841  17.779  1.00  0.00     0.265 C 
BRANCH  24  25
ATOM     25  O   UNL     1      19.594   1.676  18.940  1.00  0.00    -0.488 OA
BRANCH  25  26
ATOM     26  C   UNL     1      19.891   2.280  20.133  1.00  0.00     0.132 A 
ATOM     27  C   UNL     1      18.811   2.695  20.914  1.00  0.00     0.081 A 
ATOM     28  C   UNL     1      21.174   2.478  20.559  1.00  0.00     0.047 A 
ATOM     29  C   UNL     1      19.114   3.303  22.114  1.00  0.00     0.018 A 
ATOM     30  C   UNL     1      21.458   3.096  21.776  1.00  0.00     0.004 A 
ATOM     31  C   UNL     1      20.404   3.507  22.553  1.00  0.00     0.001 A 
BRANCH  27  32
ATOM     32  C   UNL     1      17.456   2.479  20.456  1.00  0.00     0.252 C 
ATOM     33  N   UNL     1      17.119   2.672  19.102  1.00  0.00    -0.365 N 
ATOM     34  O   UNL     1      16.577   2.121  21.264  1.00  0.00    -0.269 OA
ATOM     35  H   UNL     1      16.340   2.124  18.682  1.00  0.00     0.159 HD
ATOM     36  H   UNL     1      17.650   3.357  18.526  1.00  0.00     0.159 HD
ENDBRANCH  27  32
ENDBRANCH  25  26
ENDBRANCH  24  25
ENDBRANCH   5  24
TORSDOF 9
ENDMDL
MODEL 2
REMARK VINA RESULT:   -10.960      2.507      3.833
REMARK INTER + INTRA:         -18.302
REMARK INTER:                 -17.431
REMARK INTRA:                  -0.872
REMARK UNBOUND:                -1.576
REMARK SMILES Cc1cc(C(=O)NCCNC(=O)c2cccc(COc3ccccc3C(N)=O)c2)[nH]n1
REMARK SMILES IDX 13 1 14 2 15 3 16 4 17 5 29 6 11 7 12 8 10 9 9 11 8 12 7 13
REMARK SMILES IDX 5 14 6 16 4 17 3 18 30 19 2 20 31 21 1 23 18 24 19 25 20 26
REMARK SMILES IDX 25 27 21 28 24 29 22 30 23 31 26 32 27 33 28 34
REMARK H PARENT 10 10 7 15 30 22 27 35 27 36
REMARK Flexibility Score: inf
ROOT
ATOM      1  C   UNL     1      19.959  -2.018  17.620  1.00  0.00     0.040 A 
ATOM      2  C   UNL     1      21.199  -2.430  17.198  1.00  0.00     0.014 A 
ATOM      3  C   UNL     1      22.229  -1.556  16.927  1.00  0.00     0.001 A 
ATOM      4  C   UNL     1      22.047  -0.204  17.075  1.00  0.00     0.007 A 
ATOM      5  C   UNL     1      20.814   0.249  17.498  1.00  0.00    -0.010 A 
ATOM      6  C   UNL     1      19.802  -0.640  17.762  1.00  0.00     0.021 A 
ENDROOT
BRANCH   1   7
ATOM      7  C   UNL     1      18.843  -2.897  17.933  1.00  0.00     0.251 C 
ATOM      8  O   UNL     1      18.411  -2.881  19.120  1.00  0.00    -0.269 OA
ATOM      9  N   UNL     1      18.291  -3.719  16.931  1.00  0.00    -0.350 N 
ATOM     10  H   UNL     1      18.673  -3.705  15.975  1.00  0.00     0.163 HD
BRANCH   9  11
ATOM     11  C   UNL     1      17.183  -4.600  17.226  1.00  0.00     0.137 C 
BRANCH  11  12
ATOM     12  C   UNL     1      15.992  -4.315  16.339  1.00  0.00     0.137 C 
BRANCH  12  13
ATOM     13  N   UNL     1      16.146  -4.760  14.994  1.00  0.00    -0.349 N 
ATOM     14  C   UNL     1      15.410  -5.824  14.414  1.00  0.00     0.269 C 
ATOM     15  H   UNL     1      16.852  -4.283  14.355  1.00  0.00     0.163 HD
ATOM     16  O   UNL     1      14.558  -6.436  15.106  1.00  0.00    -0.268 OA
BRANCH  14  17
ATOM     17  C   UNL     1      15.597  -6.248  13.034  1.00  0.00     0.123 A 
ATOM     18  C   UNL     1      16.473  -7.187  12.539  1.00  0.00     0.058 A 
ATOM     19  N   UNL     1      14.928  -5.796  11.933  1.00  0.00    -0.273 N 
ATOM     20  C   UNL     1      16.331  -7.294  11.171  1.00  0.00     0.060 A 
ATOM     21  N   UNL     1      15.362  -6.409  10.856  1.00  0.00    -0.180 NA
ATOM     22  H   UNL     1      14.184  -5.071  11.953  1.00  0.00     0.190 HD
ATOM     23  C   UNL     1      17.104  -8.203  10.286  1.00  0.00     0.069 C 
ENDBRANCH  14  17
ENDBRANCH  12  13
ENDBRANCH  11  12
ENDBRANCH   9  11
ENDBRANCH   1   7
BRANCH   5  24
ATOM     24  C   UNL     1      20.525   1.715  17.696  1.00  0.00     0.265 C 
BRANCH  24  25
ATOM     25  O   UNL     1      19.581   1.801  18.738  1.00  0.00    -0.488 OA
BRANCH  25  26
ATOM     26  C   UNL     1      19.884   2.289  19.982  1.00  0.00     0.132 A 
ATOM     27  C   UNL     1      18.807   2.622  20.806  1.00  0.00     0.081 A 
ATOM     28  C   UNL     1      21.169   2.450  20.418  1.00  0.00     0.047 A 
ATOM     29  C   UNL     1      19.116   3.111  22.058  1.00  0.00     0.018 A 
ATOM     30  C   UNL     1      21.458   2.948  21.688  1.00  0.00     0.004 A 
ATOM     31  C   UNL     1      20.408   3.278  22.506  1.00  0.00     0.001 A 
BRANCH  27  32
ATOM     32  C   UNL     1      17.450   2.446  20.337  1.00  0.00     0.252 C 
ATOM     33  N   UNL     1      17.161   2.469  18.958  1.00  0.00    -0.365 N 
ATOM     34  O   UNL     1      16.528   2.274  21.157  1.00  0.00    -0.269 OA
ATOM     35  H   UNL     1      16.350   1.927  18.593  1.00  0.00     0.159 HD
ATOM     36  H   UNL     1      17.757   3.023  18.311  1.00  0.00     0.159 HD
ENDBRANCH  27  32
ENDBRANCH  25  26
ENDBRANCH  24  25
ENDBRANCH   5  24
TORSDOF 9
ENDMDL
MODEL 3
REMARK VINA RESULT:   -10.391      1.773      2.243
REMARK INTER + INTRA:         -17.434
REMARK INTER:                 -15.784
REMARK INTRA:                  -1.651
REMARK UNBOUND:                -1.576
REMARK SMILES Cc1cc(C(=O)NCCNC(=O)c2cccc(COc3ccccc3C(N)=O)c2)[nH]n1
REMARK SMILES IDX 13 1 14 2 15 3 16 4 17 5 29 6 11 7 12 8 10 9 9 11 8 12 7 13
REMARK SMILES IDX 5 14 6 16 4 17 3 18 30 19 2 20 31 21 1 23 18 24 19 25 20 26
REMARK SMILES IDX 25 27 21 28 24 29 22 30 23 31 26 32 27 33 28 34
REMARK H PARENT 10 10 7 15 30 22 27 35 27 36
REMARK Flexibility Score: inf
ROOT
ATOM      1  C   UNL     1      20.644  -2.101  17.333  1.00  0.00     0.040 A 
ATOM      2  C   UNL     1      21.892  -2.550  16.977  1.00  0.00     0.014 A 
ATOM      3  C   UNL     1      22.988  -1.721  16.878  1.00  0.00     0.001 A 
ATOM      4  C   UNL     1      22.868  -0.380  17.140  1.00  0.00     0.007 A 
ATOM      5  C   UNL     1      21.629   0.110  17.502  1.00  0.00    -0.010 A 
ATOM      6  C   UNL     1      20.550  -0.734  17.594  1.00  0.00     0.021 A 
ENDROOT
BRANCH   1   7
ATOM      7  C   UNL     1      19.458  -2.933  17.466  1.00  0.00     0.251 C 
ATOM      8  O   UNL     1      18.839  -2.884  18.566  1.00  0.00    -0.269 OA
ATOM      9  N   UNL     1      19.045  -3.747  16.393  1.00  0.00    -0.350 N 
ATOM     10  H   UNL     1      19.577  -3.760  15.513  1.00  0.00     0.163 HD
BRANCH   9  11
ATOM     11  C   UNL     1      17.870  -4.581  16.510  1.00  0.00     0.137 C 
BRANCH  11  12
ATOM     12  C   UNL     1      16.714  -4.035  15.701  1.00  0.00     0.137 C 
BRANCH  12  13
ATOM     13  N   UNL     1      17.093  -3.087  14.708  1.00  0.00    -0.349 N 
ATOM     14  C   UNL     1      16.494  -1.812  14.549  1.00  0.00     0.269 C 
ATOM     15  H   UNL     1      17.876  -3.319  14.025  1.00  0.00     0.163 HD
ATOM     16  O   UNL     1      15.562  -1.467  15.319  1.00  0.00    -0.268 OA
BRANCH  14  17
ATOM     17  C   UNL     1      16.911  -0.870  13.521  1.00  0.00     0.123 A 
ATOM     18  C   UNL     1      17.043   0.497  13.617  1.00  0.00     0.058 A 
ATOM     19  N   UNL     1      17.266  -1.154  12.234  1.00  0.00    -0.273 N 
ATOM     20  C   UNL     1      17.467   1.019  12.413  1.00  0.00     0.060 A 
ATOM     21  N   UNL     1      17.586  -0.052  11.598  1.00  0.00    -0.180 NA
ATOM     22  H   UNL     1      17.277  -2.109  11.824  1.00  0.00     0.190 HD
ATOM     23  C   UNL     1      17.721   2.455  12.129  1.00  0.00     0.069 C 
ENDBRANCH  14  17
ENDBRANCH  12  13
ENDBRANCH  11  12
ENDBRANCH   9  11
ENDBRANCH   1   7
BRANCH   5  24
ATOM     24  C   UNL     1      21.404   1.567  17.815  1.00  0.00     0.265 C 
BRANCH  24  25
ATOM     25  O   UNL     1      21.015   1.631  19.167  1.00  0.00    -0.488 OA
BRANCH  25  26
ATOM     26  C   UNL     1      19.799   2.113  19.573  1.00  0.00     0.132 A 
ATOM     27  C   UNL     1      19.754   2.735  20.822  1.00  0.00     0.081 A 
ATOM     28  C   UNL     1      18.671   2.003  18.811  1.00  0.00     0.047 A 
ATOM     29  C   UNL     1      18.528   3.220  21.227  1.00  0.00     0.018 A 
ATOM     30  C   UNL     1      17.441   2.500  19.241  1.00  0.00     0.004 A 
ATOM     31  C   UNL     1      17.386   3.113  20.466  1.00  0.00     0.001 A 
BRANCH  27  32
ATOM     32  C   UNL     1      20.954   2.849  21.623  1.00  0.00     0.252 C 
ATOM     33  N   UNL     1      22.061   3.583  21.153  1.00  0.00    -0.365 N 
ATOM     34  O   UNL     1      21.012   2.293  22.737  1.00  0.00    -0.269 OA
ATOM     35  H   UNL     1      22.702   4.040  21.833  1.00  0.00     0.159 HD
ATOM     36  H   UNL     1      22.232   3.669  20.130  1.00  0.00     0.159 HD
ENDBRANCH  27  32
ENDBRANCH  25  26
ENDBRANCH  24  25
ENDBRANCH   5  24
TORSDOF 9
ENDMDL
MODEL 4
REMARK VINA RESULT:   -10.110      1.629      2.205
REMARK INTER + INTRA:         -17.005
REMARK INTER:                 -15.553
REMARK INTRA:                  -1.452
REMARK UNBOUND:                -1.576
REMARK SMILES Cc1cc(C(=O)NCCNC(=O)c2cccc(COc3ccccc3C(N)=O)c2)[nH]n1
REMARK SMILES IDX 13 1 14 2 15 3 16 4 17 5 29 6 11 7 12 8 10 9 9 11 8 12 7 13
REMARK SMILES IDX 5 14 6 16 4 17 3 18 30 19 2 20 31 21 1 23 18 24 19 25 20 26
REMARK SMILES IDX 25 27 21 28 24 29 22 30 23 31 26 32 27 33 28 34
REMARK H PARENT 10 10 7 15 30 22 27 35 27 36
REMARK Flexibility Score: inf
ROOT
ATOM      1  C   UNL     1      20.850  -2.127  16.715  1.00  0.00     0.040 A 
ATOM      2  C   UNL     1      22.210  -2.112  16.905  1.00  0.00     0.014 A 
ATOM      3  C   UNL     1      22.908  -0.976  17.254  1.00  0.00     0.001 A 
ATOM      4  C   UNL     1      22.249   0.214  17.429  1.00  0.00     0.007 A 
ATOM      5  C   UNL     1      20.881   0.240  17.248  1.00  0.00    -0.010 A 
ATOM      6  C   UNL     1      20.206  -0.904  16.900  1.00  0.00     0.021 A 
ENDROOT
BRANCH   1   7
ATOM      7  C   UNL     1      20.064  -3.298  16.360  1.00  0.00     0.251 C 
ATOM      8  O   UNL     1      20.515  -4.040  15.443  1.00  0.00    -0.269 OA
ATOM      9  N   UNL     1      18.854  -3.563  17.030  1.00  0.00    -0.350 N 
ATOM     10  H   UNL     1      18.518  -2.933  17.770  1.00  0.00     0.163 HD
BRANCH   9  11
ATOM     11  C   UNL     1      18.059  -4.722  16.687  1.00  0.00     0.137 C 
BRANCH  11  12
ATOM     12  C   UNL     1      17.195  -4.467  15.472  1.00  0.00     0.137 C 
BRANCH  12  13
ATOM     13  N   UNL     1      17.276  -3.138  14.967  1.00  0.00    -0.349 N 
ATOM     14  C   UNL     1      16.366  -2.101  15.293  1.00  0.00     0.269 C 
ATOM     15  H   UNL     1      18.061  -2.872  14.297  1.00  0.00     0.163 HD
ATOM     16  O   UNL     1      15.413  -2.339  16.077  1.00  0.00    -0.268 OA
BRANCH  14  17
ATOM     17  C   UNL     1      16.484  -0.754  14.755  1.00  0.00     0.123 A 
ATOM     18  C   UNL     1      16.962  -0.363  13.525  1.00  0.00     0.058 A 
ATOM     19  N   UNL     1      16.136   0.415  15.369  1.00  0.00    -0.273 N 
ATOM     20  C   UNL     1      16.901   1.010  13.406  1.00  0.00     0.060 A 
ATOM     21  N   UNL     1      16.383   1.433  14.579  1.00  0.00    -0.180 NA
ATOM     22  H   UNL     1      15.736   0.480  16.326  1.00  0.00     0.190 HD
ATOM     23  C   UNL     1      17.327   1.800  12.222  1.00  0.00     0.069 C 
ENDBRANCH  14  17
ENDBRANCH  12  13
ENDBRANCH  11  12
ENDBRANCH   9  11
ENDBRANCH   1   7
BRANCH   5  24
ATOM     24  C   UNL     1      20.073   1.500  17.427  1.00  0.00     0.265 C 
BRANCH  24  25
ATOM     25  O   UNL     1      20.685   2.224  18.468  1.00  0.00    -0.488 OA
BRANCH  25  26
ATOM     26  C   UNL     1      20.095   2.423  19.688  1.00  0.00     0.132 A 
ATOM     27  C   UNL     1      20.894   2.974  20.691  1.00  0.00     0.081 A 
ATOM     28  C   UNL     1      18.789   2.105  19.936  1.00  0.00     0.047 A 
ATOM     29  C   UNL     1      20.296   3.172  21.918  1.00  0.00     0.018 A 
ATOM     30  C   UNL     1      18.205   2.313  21.185  1.00  0.00     0.004 A 
ATOM     31  C   UNL     1      18.981   2.855  22.177  1.00  0.00     0.001 A 
BRANCH  27  32
ATOM     32  C   UNL     1      22.275   3.309  20.420  1.00  0.00     0.252 C 
ATOM     33  N   UNL     1      23.176   2.323  19.974  1.00  0.00    -0.365 N 
ATOM     34  O   UNL     1      22.672   4.479  20.581  1.00  0.00    -0.269 OA
ATOM     35  H   UNL     1      23.982   2.595  19.374  1.00  0.00     0.159 HD
ATOM     36  H   UNL     1      23.035   1.328  20.244  1.00  0.00     0.159 HD
ENDBRANCH  27  32
ENDBRANCH  25  26
ENDBRANCH  24  25
ENDBRANCH   5  24
TORSDOF 9
ENDMDL
MODEL 5
REMARK VINA RESULT:   -10.105      3.256      4.735
REMARK INTER + INTRA:         -16.997
REMARK INTER:                 -15.785
REMARK INTRA:                  -1.212
REMARK UNBOUND:                -1.576
REMARK SMILES Cc1cc(C(=O)NCCNC(=O)c2cccc(COc3ccccc3C(N)=O)c2)[nH]n1
REMARK SMILES IDX 13 1 14 2 15 3 16 4 17 5 29 6 11 7 12 8 10 9 9 11 8 12 7 13
REMARK SMILES IDX 5 14 6 16 4 17 3 18 30 19 2 20 31 21 1 23 18 24 19 25 20 26
REMARK SMILES IDX 25 27 21 28 24 29 22 30 23 31 26 32 27 33 28 34
REMARK H PARENT 10 10 7 15 30 22 27 35 27 36
REMARK Flexibility Score: inf
ROOT
ATOM      1  C   UNL     1      20.430  -2.158  16.980  1.00  0.00     0.040 A 
ATOM      2  C   UNL     1      21.799  -2.255  16.931  1.00  0.00     0.014 A 
ATOM      3  C   UNL     1      22.636  -1.176  17.117  1.00  0.00     0.001 A 
ATOM      4  C   UNL     1      22.115   0.069  17.366  1.00  0.00     0.007 A 
ATOM      5  C   UNL     1      20.743   0.207  17.423  1.00  0.00    -0.010 A 
ATOM      6  C   UNL     1      19.928  -0.881  17.234  1.00  0.00     0.021 A 
ENDROOT
BRANCH   1   7
ATOM      7  C   UNL     1      19.502  -3.264  16.804  1.00  0.00     0.251 C 
ATOM      8  O   UNL     1      18.987  -3.756  17.847  1.00  0.00    -0.269 OA
ATOM      9  N   UNL     1      19.214  -3.744  15.511  1.00  0.00    -0.350 N 
ATOM     10  H   UNL     1      19.657  -3.317  14.686  1.00  0.00     0.163 HD
BRANCH   9  11
ATOM     11  C   UNL     1      18.296  -4.844  15.320  1.00  0.00     0.137 C 
BRANCH  11  12
ATOM     12  C   UNL     1      17.049  -4.410  14.584  1.00  0.00     0.137 C 
BRANCH  12  13
ATOM     13  N   UNL     1      16.891  -5.007  13.300  1.00  0.00    -0.349 N 
ATOM     14  C   UNL     1      16.031  -6.100  13.026  1.00  0.00     0.269 C 
ATOM     15  H   UNL     1      17.442  -4.632  12.469  1.00  0.00     0.163 HD
ATOM     16  O   UNL     1      15.348  -6.598  13.957  1.00  0.00    -0.268 OA
BRANCH  14  17
ATOM     17  C   UNL     1      15.897  -6.682  11.698  1.00  0.00     0.123 A 
ATOM     18  C   UNL     1      16.646  -7.685  11.125  1.00  0.00     0.058 A 
ATOM     19  N   UNL     1      14.987  -6.349  10.738  1.00  0.00    -0.273 N 
ATOM     20  C   UNL     1      16.192  -7.946   9.849  1.00  0.00     0.060 A 
ATOM     21  N   UNL     1      15.166  -7.088   9.668  1.00  0.00    -0.180 NA
ATOM     22  H   UNL     1      14.259  -5.615  10.845  1.00  0.00     0.190 HD
ATOM     23  C   UNL     1      16.750  -8.962   8.919  1.00  0.00     0.069 C 
ENDBRANCH  14  17
ENDBRANCH  12  13
ENDBRANCH  11  12
ENDBRANCH   9  11
ENDBRANCH   1   7
BRANCH   5  24
ATOM     24  C   UNL     1      20.083   1.534  17.698  1.00  0.00     0.265 C 
BRANCH  24  25
ATOM     25  O   UNL     1      20.906   2.208  18.621  1.00  0.00    -0.488 OA
BRANCH  25  26
ATOM     26  C   UNL     1      20.514   2.494  19.902  1.00  0.00     0.132 A 
ATOM     27  C   UNL     1      21.463   3.092  20.732  1.00  0.00     0.081 A 
ATOM     28  C   UNL     1      19.259   2.217  20.368  1.00  0.00     0.047 A 
ATOM     29  C   UNL     1      21.065   3.379  22.020  1.00  0.00     0.018 A 
ATOM     30  C   UNL     1      18.878   2.515  21.676  1.00  0.00     0.004 A 
ATOM     31  C   UNL     1      19.803   3.104  22.500  1.00  0.00     0.001 A 
BRANCH  27  32
ATOM     32  C   UNL     1      22.789   3.383  20.229  1.00  0.00     0.252 C 
ATOM     33  N   UNL     1      23.601   2.354  19.716  1.00  0.00    -0.365 N 
ATOM     34  O   UNL     1      23.217   4.553  20.250  1.00  0.00    -0.269 OA
ATOM     35  H   UNL     1      24.306   2.572  18.982  1.00  0.00     0.159 HD
ATOM     36  H   UNL     1      23.494   1.381  20.069  1.00  0.00     0.159 HD
ENDBRANCH  27  32
ENDBRANCH  25  26
ENDBRANCH  24  25
ENDBRANCH   5  24
TORSDOF 9
ENDMDL
MODEL 6
REMARK VINA RESULT:   -10.026      3.243      5.895
REMARK INTER + INTRA:         -16.878
REMARK INTER:                 -15.579
REMARK INTRA:                  -1.299
REMARK UNBOUND:                -1.576
REMARK SMILES Cc1cc(C(=O)NCCNC(=O)c2cccc(COc3ccccc3C(N)=O)c2)[nH]n1
REMARK SMILES IDX 13 1 14 2 15 3 16 4 17 5 29 6 11 7 12 8 10 9 9 11 8 12 7 13
REMARK SMILES IDX 5 14 6 16 4 17 3 18 30 19 2 20 31 21 1 23 18 24 19 25 20 26
REMARK SMILES IDX 25 27 21 28 24 29 22 30 23 31 26 32 27 33 28 34
REMARK H PARENT 10 10 7 15 30 22 27 35 27 36
REMARK Flexibility Score: inf
ROOT
ATOM      1  C   UNL     1      17.311   0.353  13.341  1.00  0.00     0.040 A 
ATOM      2  C   UNL     1      16.992   1.471  12.610  1.00  0.00     0.014 A 
ATOM      3  C   UNL     1      17.765   2.611  12.604  1.00  0.00     0.001 A 
ATOM      4  C   UNL     1      18.916   2.671  13.348  1.00  0.00     0.007 A 
ATOM      5  C   UNL     1      19.272   1.566  14.096  1.00  0.00    -0.010 A 
ATOM      6  C   UNL     1      18.486   0.441  14.088  1.00  0.00     0.021 A 
ENDROOT
BRANCH   1   7
ATOM      7  C   UNL     1      16.539  -0.879  13.373  1.00  0.00     0.251 C 
ATOM      8  O   UNL     1      16.465  -1.542  12.300  1.00  0.00    -0.269 OA
ATOM      9  N   UNL     1      15.912  -1.287  14.567  1.00  0.00    -0.350 N 
ATOM     10  H   UNL     1      15.995  -0.717  15.420  1.00  0.00     0.163 HD
BRANCH   9  11
ATOM     11  C   UNL     1      15.139  -2.508  14.615  1.00  0.00     0.137 C 
BRANCH  11  12
ATOM     12  C   UNL     1      16.028  -3.728  14.705  1.00  0.00     0.137 C 
BRANCH  12  13
ATOM     13  N   UNL     1      16.140  -4.460  13.488  1.00  0.00    -0.349 N 
ATOM     14  C   UNL     1      15.633  -5.769  13.292  1.00  0.00     0.269 C 
ATOM     15  H   UNL     1      16.631  -4.023  12.650  1.00  0.00     0.163 HD
ATOM     16  O   UNL     1      15.042  -6.351  14.236  1.00  0.00    -0.268 OA
BRANCH  14  17
ATOM     17  C   UNL     1      15.768  -6.483  12.030  1.00  0.00     0.123 A 
ATOM     18  C   UNL     1      16.599  -7.538  11.729  1.00  0.00     0.058 A 
ATOM     19  N   UNL     1      15.083  -6.252  10.872  1.00  0.00    -0.273 N 
ATOM     20  C   UNL     1      16.416  -7.928  10.419  1.00  0.00     0.060 A 
ATOM     21  N   UNL     1      15.467  -7.095   9.943  1.00  0.00    -0.180 NA
ATOM     22  H   UNL     1      14.364  -5.511  10.752  1.00  0.00     0.190 HD
ATOM     23  C   UNL     1      17.135  -9.032   9.732  1.00  0.00     0.069 C 
ENDBRANCH  14  17
ENDBRANCH  12  13
ENDBRANCH  11  12
ENDBRANCH   9  11
ENDBRANCH   1   7
BRANCH   5  24
ATOM     24  C   UNL     1      20.522   1.539  14.937  1.00  0.00     0.265 C 
BRANCH  24  25
ATOM     25  O   UNL     1      20.226   0.757  16.071  1.00  0.00    -0.488 OA
BRANCH  25  26
ATOM     26  C   UNL     1      19.814   1.292  17.262  1.00  0.00     0.132 A 
ATOM     27  C   UNL     1      20.812   1.650  18.170  1.00  0.00     0.081 A 
ATOM     28  C   UNL     1      18.496   1.478  17.570  1.00  0.00     0.047 A 
ATOM     29  C   UNL     1      20.394   2.190  19.368  1.00  0.00     0.018 A 
ATOM     30  C   UNL     1      18.095   2.025  18.788  1.00  0.00     0.004 A 
ATOM     31  C   UNL     1      19.067   2.381  19.687  1.00  0.00     0.001 A 
BRANCH  27  32
ATOM     32  C   UNL     1      22.206   1.451  17.835  1.00  0.00     0.252 C 
ATOM     33  N   UNL     1      22.722   0.152  17.660  1.00  0.00    -0.365 N 
ATOM     34  O   UNL     1      22.958   2.436  17.699  1.00  0.00    -0.269 OA
ATOM     35  H   UNL     1      23.526  -0.000  17.017  1.00  0.00     0.159 HD
ATOM     36  H   UNL     1      22.298  -0.649  18.171  1.00  0.00     0.159 HD
ENDBRANCH  27  32
ENDBRANCH  25  26
ENDBRANCH  24  25
ENDBRANCH   5  24
TORSDOF 9
ENDMDL
MODEL 7
REMARK VINA RESULT:    -9.992      1.919      3.789
REMARK INTER + INTRA:         -16.825
REMARK INTER:                 -15.723
REMARK INTRA:                  -1.102
REMARK UNBOUND:                -1.576
REMARK SMILES Cc1cc(C(=O)NCCNC(=O)c2cccc(COc3ccccc3C(N)=O)c2)[nH]n1
REMARK SMILES IDX 13 1 14 2 15 3 16 4 17 5 29 6 11 7 12 8 10 9 9 11 8 12 7 13
REMARK SMILES IDX 5 14 6 16 4 17 3 18 30 19 2 20 31 21 1 23 18 24 19 25 20 26
REMARK SMILES IDX 25 27 21 28 24 29 22 30 23 31 26 32 27 33 28 34
REMARK H PARENT 10 10 7 15 30 22 27 35 27 36
REMARK Flexibility Score: inf
ROOT
ATOM      1  C   UNL     1      19.409  -1.077  16.145  1.00  0.00     0.040 A 
ATOM      2  C   UNL     1      20.303  -2.119  16.180  1.00  0.00     0.014 A 
ATOM      3  C   UNL     1      21.506  -2.054  16.847  1.00  0.00     0.001 A 
ATOM      4  C   UNL     1      21.864  -0.913  17.520  1.00  0.00     0.007 A 
ATOM      5  C   UNL     1      20.991   0.156  17.509  1.00  0.00    -0.010 A 
ATOM      6  C   UNL     1      19.798   0.070  16.838  1.00  0.00     0.021 A 
ENDROOT
BRANCH   1   7
ATOM      7  C   UNL     1      18.120  -1.096  15.469  1.00  0.00     0.251 C 
ATOM      8  O   UNL     1      17.246  -1.891  15.917  1.00  0.00    -0.269 OA
ATOM      9  N   UNL     1      17.891  -0.253  14.365  1.00  0.00    -0.350 N 
ATOM     10  H   UNL     1      18.631   0.379  14.029  1.00  0.00     0.163 HD
BRANCH   9  11
ATOM     11  C   UNL     1      16.618  -0.263  13.680  1.00  0.00     0.137 C 
BRANCH  11  12
ATOM     12  C   UNL     1      16.625  -1.207  12.499  1.00  0.00     0.137 C 
BRANCH  12  13
ATOM     13  N   UNL     1      16.603  -2.586  12.855  1.00  0.00    -0.349 N 
ATOM     14  C   UNL     1      15.456  -3.272  13.329  1.00  0.00     0.269 C 
ATOM     15  H   UNL     1      17.490  -3.170  12.771  1.00  0.00     0.163 HD
ATOM     16  O   UNL     1      14.372  -2.649  13.456  1.00  0.00    -0.268 OA
BRANCH  14  17
ATOM     17  C   UNL     1      15.474  -4.684  13.682  1.00  0.00     0.123 A 
ATOM     18  C   UNL     1      16.197  -5.701  13.101  1.00  0.00     0.058 A 
ATOM     19  N   UNL     1      14.770  -5.297  14.677  1.00  0.00    -0.273 N 
ATOM     20  C   UNL     1      15.930  -6.896  13.736  1.00  0.00     0.060 A 
ATOM     21  N   UNL     1      15.040  -6.581  14.701  1.00  0.00    -0.180 NA
ATOM     22  H   UNL     1      14.114  -4.810  15.320  1.00  0.00     0.190 HD
ATOM     23  C   UNL     1      16.522  -8.215  13.391  1.00  0.00     0.069 C 
ENDBRANCH  14  17
ENDBRANCH  12  13
ENDBRANCH  11  12
ENDBRANCH   9  11
ENDBRANCH   1   7
BRANCH   5  24
ATOM     24  C   UNL     1      21.297   1.446  18.226  1.00  0.00     0.265 C 
BRANCH  24  25
ATOM     25  O   UNL     1      20.127   1.804  18.924  1.00  0.00    -0.488 OA
BRANCH  25  26
ATOM     26  C   UNL     1      20.144   2.386  20.164  1.00  0.00     0.132 A 
ATOM     27  C   UNL     1      18.906   2.665  20.745  1.00  0.00     0.081 A 
ATOM     28  C   UNL     1      21.304   2.688  20.820  1.00  0.00     0.047 A 
ATOM     29  C   UNL     1      18.928   3.250  21.994  1.00  0.00     0.018 A 
ATOM     30  C   UNL     1      21.302   3.280  22.082  1.00  0.00     0.004 A 
ATOM     31  C   UNL     1      20.092   3.558  22.663  1.00  0.00     0.001 A 
BRANCH  27  32
ATOM     32  C   UNL     1      17.683   2.340  20.044  1.00  0.00     0.252 C 
ATOM     33  N   UNL     1      17.640   2.354  18.636  1.00  0.00    -0.365 N 
ATOM     34  O   UNL     1      16.658   2.046  20.688  1.00  0.00    -0.269 OA
ATOM     35  H   UNL     1      16.977   1.728  18.135  1.00  0.00     0.159 HD
ATOM     36  H   UNL     1      18.272   2.986  18.102  1.00  0.00     0.159 HD
ENDBRANCH  27  32
ENDBRANCH  25  26
ENDBRANCH  24  25
ENDBRANCH   5  24
TORSDOF 9
ENDMDL
MODEL 8
REMARK VINA RESULT:    -9.954      3.290      5.636
REMARK INTER + INTRA:         -16.768
REMARK INTER:                 -14.684
REMARK INTRA:                  -2.083
REMARK UNBOUND:                -1.576
REMARK SMILES Cc1cc(C(=O)NCCNC(=O)c2cccc(COc3ccccc3C(N)=O)c2)[nH]n1
REMARK SMILES IDX 13 1 14 2 15 3 16 4 17 5 29 6 11 7 12 8 10 9 9 11 8 12 7 13
REMARK SMILES IDX 5 14 6 16 4 17 3 18 30 19 2 20 31 21 1 23 18 24 19 25 20 26
REMARK SMILES IDX 25 27 21 28 24 29 22 30 23 31 26 32 27 33 28 34
REMARK H PARENT 10 10 7 15 30 22 27 35 27 36
REMARK Flexibility Score: inf
ROOT
ATOM      1  C   UNL     1      18.224   1.866  17.879  1.00  0.00     0.040 A 
ATOM      2  C   UNL     1      17.299   2.232  18.826  1.00  0.00     0.014 A 
ATOM      3  C   UNL     1      17.644   2.622  20.102  1.00  0.00     0.001 A 
ATOM      4  C   UNL     1      18.963   2.659  20.481  1.00  0.00     0.007 A 
ATOM      5  C   UNL     1      19.922   2.298  19.557  1.00  0.00    -0.010 A 
ATOM      6  C   UNL     1      19.555   1.914  18.292  1.00  0.00     0.021 A 
ENDROOT
BRANCH   1   7
ATOM      7  C   UNL     1      17.915   1.461  16.516  1.00  0.00     0.251 C 
ATOM      8  O   UNL     1      18.576   2.007  15.589  1.00  0.00    -0.269 OA
ATOM      9  N   UNL     1      16.916   0.497  16.277  1.00  0.00    -0.350 N 
ATOM     10  H   UNL     1      16.399   0.077  17.060  1.00  0.00     0.163 HD
BRANCH   9  11
ATOM     11  C   UNL     1      16.597   0.086  14.928  1.00  0.00     0.137 C 
BRANCH  11  12
ATOM     12  C   UNL     1      17.465  -1.067  14.475  1.00  0.00     0.137 C 
BRANCH  12  13
ATOM     13  N   UNL     1      18.708  -0.671  13.903  1.00  0.00    -0.349 N 
ATOM     14  C   UNL     1      19.964  -0.804  14.548  1.00  0.00     0.269 C 
ATOM     15  H   UNL     1      18.731  -0.243  12.929  1.00  0.00     0.163 HD
ATOM     16  O   UNL     1      20.017  -1.301  15.702  1.00  0.00    -0.268 OA
BRANCH  14  17
ATOM     17  C   UNL     1      21.214  -0.388  13.929  1.00  0.00     0.123 A 
ATOM     18  C   UNL     1      22.159  -1.168  13.302  1.00  0.00     0.058 A 
ATOM     19  N   UNL     1      21.710   0.880  13.840  1.00  0.00    -0.273 N 
ATOM     20  C   UNL     1      23.197  -0.383  12.847  1.00  0.00     0.060 A 
ATOM     21  N   UNL     1      22.861   0.874  13.211  1.00  0.00    -0.180 NA
ATOM     22  H   UNL     1      21.237   1.725  14.218  1.00  0.00     0.190 HD
ATOM     23  C   UNL     1      24.400  -0.867  12.122  1.00  0.00     0.069 C 
ENDBRANCH  14  17
ENDBRANCH  12  13
ENDBRANCH  11  12
ENDBRANCH   9  11
ENDBRANCH   1   7
BRANCH   5  24
ATOM     24  C   UNL     1      21.393   2.316  19.882  1.00  0.00     0.265 C 
BRANCH  24  25
ATOM     25  O   UNL     1      22.074   2.443  18.656  1.00  0.00    -0.488 OA
BRANCH  25  26
ATOM     26  C   UNL     1      22.899   1.471  18.154  1.00  0.00     0.132 A 
ATOM     27  C   UNL     1      24.252   1.794  18.037  1.00  0.00     0.081 A 
ATOM     28  C   UNL     1      22.443   0.239  17.780  1.00  0.00     0.047 A 
ATOM     29  C   UNL     1      25.079   0.812  17.532  1.00  0.00     0.018 A 
ATOM     30  C   UNL     1      23.298  -0.738  17.271  1.00  0.00     0.004 A 
ATOM     31  C   UNL     1      24.629  -0.433  17.152  1.00  0.00     0.001 A 
BRANCH  27  32
ATOM     32  C   UNL     1      24.726   3.101  18.437  1.00  0.00     0.252 C 
ATOM     33  N   UNL     1      24.842   3.433  19.801  1.00  0.00    -0.365 N 
ATOM     34  O   UNL     1      25.035   3.941  17.570  1.00  0.00    -0.269 OA
ATOM     35  H   UNL     1      25.557   4.126  20.103  1.00  0.00     0.159 HD
ATOM     36  H   UNL     1      24.217   2.984  20.501  1.00  0.00     0.159 HD
ENDBRANCH  27  32
ENDBRANCH  25  26
ENDBRANCH  24  25
ENDBRANCH   5  24
TORSDOF 9
ENDMDL
MODEL 9
REMARK VINA RESULT:    -9.889      4.799      6.388
REMARK INTER + INTRA:         -16.668
REMARK INTER:                 -15.189
REMARK INTRA:                  -1.479
REMARK UNBOUND:                -1.576
REMARK SMILES Cc1cc(C(=O)NCCNC(=O)c2cccc(COc3ccccc3C(N)=O)c2)[nH]n1
REMARK SMILES IDX 13 1 14 2 15 3 16 4 17 5 29 6 11 7 12 8 10 9 9 11 8 12 7 13
REMARK SMILES IDX 5 14 6 16 4 17 3 18 30 19 2 20 31 21 1 23 18 24 19 25 20 26
REMARK SMILES IDX 25 27 21 28 24 29 22 30 23 31 26 32 27 33 28 34
REMARK H PARENT 10 10 7 15 30 22 27 35 27 36
REMARK Flexibility Score: inf
ROOT
ATOM      1  C   UNL     1      23.350   0.015  17.220  1.00  0.00     0.040 A 
ATOM      2  C   UNL     1      22.886  -1.273  17.109  1.00  0.00     0.014 A 
ATOM      3  C   UNL     1      21.553  -1.604  17.217  1.00  0.00     0.001 A 
ATOM      4  C   UNL     1      20.615  -0.628  17.445  1.00  0.00     0.007 A 
ATOM      5  C   UNL     1      21.042   0.679  17.562  1.00  0.00    -0.010 A 
ATOM      6  C   UNL     1      22.375   0.985  17.451  1.00  0.00     0.021 A 
ENDROOT
BRANCH   1   7
ATOM      7  C   UNL     1      24.742   0.420  17.101  1.00  0.00     0.251 C 
ATOM      8  O   UNL     1      25.516   0.112  18.050  1.00  0.00    -0.269 OA
ATOM      9  N   UNL     1      25.175   1.127  15.962  1.00  0.00    -0.350 N 
ATOM     10  H   UNL     1      24.512   1.361  15.210  1.00  0.00     0.163 HD
BRANCH   9  11
ATOM     11  C   UNL     1      26.554   1.538  15.829  1.00  0.00     0.137 C 
BRANCH  11  12
ATOM     12  C   UNL     1      26.711   3.032  16.006  1.00  0.00     0.137 C 
BRANCH  12  13
ATOM     13  N   UNL     1      26.301   3.800  14.879  1.00  0.00    -0.349 N 
ATOM     14  C   UNL     1      25.023   4.395  14.738  1.00  0.00     0.269 C 
ATOM     15  H   UNL     1      26.977   3.956  14.070  1.00  0.00     0.163 HD
ATOM     16  O   UNL     1      24.171   4.254  15.652  1.00  0.00    -0.268 OA
BRANCH  14  17
ATOM     17  C   UNL     1      24.643   5.175  13.568  1.00  0.00     0.123 A 
ATOM     18  C   UNL     1      23.615   6.082  13.442  1.00  0.00     0.058 A 
ATOM     19  N   UNL     1      25.238   5.166  12.340  1.00  0.00    -0.273 N 
ATOM     20  C   UNL     1      23.598   6.605  12.166  1.00  0.00     0.060 A 
ATOM     21  N   UNL     1      24.625   5.999  11.533  1.00  0.00    -0.180 NA
ATOM     22  H   UNL     1      26.059   4.581  12.088  1.00  0.00     0.190 HD
ATOM     23  C   UNL     1      22.634   7.614  11.654  1.00  0.00     0.069 C 
ENDBRANCH  14  17
ENDBRANCH  12  13
ENDBRANCH  11  12
ENDBRANCH   9  11
ENDBRANCH   1   7
BRANCH   5  24
ATOM     24  C   UNL     1      20.082   1.816  17.805  1.00  0.00     0.265 C 
BRANCH  24  25
ATOM     25  O   UNL     1      19.468   1.564  19.047  1.00  0.00    -0.488 OA
BRANCH  25  26
ATOM     26  C   UNL     1      19.775   2.258  20.187  1.00  0.00     0.132 A 
ATOM     27  C   UNL     1      18.702   2.749  20.933  1.00  0.00     0.081 A 
ATOM     28  C   UNL     1      21.061   2.472  20.596  1.00  0.00     0.047 A 
ATOM     29  C   UNL     1      19.015   3.447  22.081  1.00  0.00     0.018 A 
ATOM     30  C   UNL     1      21.355   3.181  21.760  1.00  0.00     0.004 A 
ATOM     31  C   UNL     1      20.308   3.667  22.501  1.00  0.00     0.001 A 
BRANCH  27  32
ATOM     32  C   UNL     1      17.343   2.516  20.493  1.00  0.00     0.252 C 
ATOM     33  N   UNL     1      16.964   2.790  19.165  1.00  0.00    -0.365 N 
ATOM     34  O   UNL     1      16.500   2.070  21.295  1.00  0.00    -0.269 OA
ATOM     35  H   UNL     1      16.194   2.245  18.726  1.00  0.00     0.159 HD
ATOM     36  H   UNL     1      17.455   3.533  18.626  1.00  0.00     0.159 HD
ENDBRANCH  27  32
ENDBRANCH  25  26
ENDBRANCH  24  25
ENDBRANCH   5  24
TORSDOF 9
ENDMDL
MODEL 10
REMARK VINA RESULT:    -9.880      1.916      3.618
REMARK INTER + INTRA:         -16.654
REMARK INTER:                 -14.545
REMARK INTRA:                  -2.109
REMARK UNBOUND:                -1.576
REMARK SMILES Cc1cc(C(=O)NCCNC(=O)c2cccc(COc3ccccc3C(N)=O)c2)[nH]n1
REMARK SMILES IDX 13 1 14 2 15 3 16 4 17 5 29 6 11 7 12 8 10 9 9 11 8 12 7 13
REMARK SMILES IDX 5 14 6 16 4 17 3 18 30 19 2 20 31 21 1 23 18 24 19 25 20 26
REMARK SMILES IDX 25 27 21 28 24 29 22 30 23 31 26 32 27 33 28 34
REMARK H PARENT 10 10 7 15 30 22 27 35 27 36
REMARK Flexibility Score: inf
ROOT
ATOM      1  C   UNL     1      20.736  -0.057  15.239  1.00  0.00     0.040 A 
ATOM      2  C   UNL     1      21.224  -1.333  15.380  1.00  0.00     0.014 A 
ATOM      3  C   UNL     1      22.077  -1.704  16.396  1.00  0.00     0.001 A 
ATOM      4  C   UNL     1      22.481  -0.783  17.331  1.00  0.00     0.007 A 
ATOM      5  C   UNL     1      22.011   0.510  17.224  1.00  0.00    -0.010 A 
ATOM      6  C   UNL     1      21.162   0.857  16.203  1.00  0.00     0.021 A 
ENDROOT
BRANCH   1   7
ATOM      7  C   UNL     1      19.824   0.384  14.195  1.00  0.00     0.251 C 
ATOM      8  O   UNL     1      19.749  -0.329  13.155  1.00  0.00    -0.269 OA
ATOM      9  N   UNL     1      19.071   1.562  14.368  1.00  0.00    -0.350 N 
ATOM     10  H   UNL     1      19.163   2.117  15.230  1.00  0.00     0.163 HD
BRANCH   9  11
ATOM     11  C   UNL     1      18.162   2.015  13.340  1.00  0.00     0.137 C 
BRANCH  11  12
ATOM     12  C   UNL     1      16.732   1.638  13.653  1.00  0.00     0.137 C 
BRANCH  12  13
ATOM     13  N   UNL     1      16.532   0.246  13.883  1.00  0.00    -0.349 N 
ATOM     14  C   UNL     1      16.554  -0.364  15.162  1.00  0.00     0.269 C 
ATOM     15  H   UNL     1      16.352  -0.407  13.061  1.00  0.00     0.163 HD
ATOM     16  O   UNL     1      16.761   0.342  16.181  1.00  0.00    -0.268 OA
BRANCH  14  17
ATOM     17  C   UNL     1      16.344  -1.792  15.355  1.00  0.00     0.123 A 
ATOM     18  C   UNL     1      15.189  -2.519  15.173  1.00  0.00     0.058 A 
ATOM     19  N   UNL     1      17.264  -2.715  15.760  1.00  0.00    -0.273 N 
ATOM     20  C   UNL     1      15.415  -3.848  15.463  1.00  0.00     0.060 A 
ATOM     21  N   UNL     1      16.715  -3.906  15.820  1.00  0.00    -0.180 NA
ATOM     22  H   UNL     1      18.255  -2.499  15.987  1.00  0.00     0.190 HD
ATOM     23  C   UNL     1      14.408  -4.938  15.382  1.00  0.00     0.069 C 
ENDBRANCH  14  17
ENDBRANCH  12  13
ENDBRANCH  11  12
ENDBRANCH   9  11
ENDBRANCH   1   7
BRANCH   5  24
ATOM     24  C   UNL     1      22.395   1.585  18.208  1.00  0.00     0.265 C 
BRANCH  24  25
ATOM     25  O   UNL     1      21.202   2.239  18.574  1.00  0.00    -0.488 OA
BRANCH  25  26
ATOM     26  C   UNL     1      20.845   2.470  19.875  1.00  0.00     0.132 A 
ATOM     27  C   UNL     1      19.506   2.256  20.208  1.00  0.00     0.081 A 
ATOM     28  C   UNL     1      21.738   2.890  20.821  1.00  0.00     0.047 A 
ATOM     29  C   UNL     1      19.151   2.490  21.520  1.00  0.00     0.018 A 
ATOM     30  C   UNL     1      21.356   3.120  22.142  1.00  0.00     0.004 A 
ATOM     31  C   UNL     1      20.043   2.913  22.480  1.00  0.00     0.001 A 
BRANCH  27  32
ATOM     32  C   UNL     1      18.568   1.810  19.200  1.00  0.00     0.252 C 
ATOM     33  N   UNL     1      18.740   0.565  18.564  1.00  0.00    -0.365 N 
ATOM     34  O   UNL     1      17.600   2.532  18.892  1.00  0.00    -0.269 OA
ATOM     35  H   UNL     1      17.908   0.049  18.211  1.00  0.00     0.159 HD
ATOM     36  H   UNL     1      19.694   0.166  18.452  1.00  0.00     0.159 HD
ENDBRANCH  27  32
ENDBRANCH  25  26
ENDBRANCH  24  25
ENDBRANCH   5  24
TORSDOF 9
ENDMDL
